/*---------------------------------------------------------------------------*\
| =========                 |                                                 |
| \\      /  F ield         | OpenFOAM: The Open Source CFD Toolbox           |
|  \\    /   O peration     | Version:  v1906                                 |
|   \\  /    A nd           | Web:      www.OpenFOAM.com                      |
|    \\/     M anipulation  |                                                 |
\*---------------------------------------------------------------------------*/
Build  : v1906 OPENFOAM=1906
Arch   : "LSB;label=32;scalar=64"
Exec   : buoyantSimpleFoam
Date   : Oct 20 2019
Time   : 17:41:59
Host   : LAPTOP-FK3MEHTI
PID    : 1169
I/O    : uncollated
Case   : /home/theodore_ong/GitHub_OpenFoam_workspace/OpenFoam_heatTrf_YouTube/buoyantPimpleFoam_timevaryingBC/buoyantCavity
nProcs : 1
trapFpe: Floating point exception trapping enabled (FOAM_SIGFPE).
fileModificationChecking : Monitoring run-time modified files using timeStampMaster (fileModificationSkew 10)
allowSystemOperations : Allowing user-supplied system call operations

// * * * * * * * * * * * * * * * * * * * * * * * * * * * * * * * * * * * * * //
Create time

Create mesh for time = 0


SIMPLE: convergence criteria
    field p_rgh	 tolerance 0.0001
    field U	 tolerance 0.0001
    field h	 tolerance 0.0001
    field "(k|epsilon|omega)"	 tolerance 0.001

Reading thermophysical properties

Selecting thermodynamics package 
{
    type            heRhoThermo;
    mixture         pureMixture;
    transport       const;
    thermo          hConst;
    equationOfState perfectGas;
    specie          specie;
    energy          sensibleEnthalpy;
}

Reading field U

Reading/calculating face flux field phi

Creating turbulence model

Selecting turbulence model type RAS
Selecting RAS turbulence model kOmegaSST
Selecting patchDistMethod meshWave
RAS
{
    RASModel        kOmegaSST;
    turbulence      on;
    printCoeffs     on;
    alphaK1         0.85;
    alphaK2         1;
    alphaOmega1     0.5;
    alphaOmega2     0.856;
    gamma1          0.555556;
    gamma2          0.44;
    beta1           0.075;
    beta2           0.0828;
    betaStar        0.09;
    a1              0.31;
    b1              1;
    c1              10;
    F3              false;
    decayControl    false;
    kInf            0;
    omegaInf        0;
}


Reading g

Reading hRef
Calculating field g.h

Reading field p_rgh

No MRF models present

Radiation model not active: radiationProperties not found
Selecting radiationModel none
No finite volume options present

Starting time loop

Time = 1

DILUPBiCGStab:  Solving for h, Initial residual = 0.999999, Final residual = 0.00168586, No Iterations 1
GAMG:  Solving for p_rgh, Initial residual = 0.0977446, Final residual = 0.000905201, No Iterations 51
time step continuity errors : sum local = 2.39142e-05, global = -3.66721e-18, cumulative = -3.66721e-18
rho min/max : 1.13179 1.20877
DILUPBiCGStab:  Solving for omega, Initial residual = 0.142929, Final residual = 0.00110636, No Iterations 1
DILUPBiCGStab:  Solving for k, Initial residual = 1, Final residual = 0.0155888, No Iterations 1
ExecutionTime = 2.01 s  ClockTime = 4 s

Time = 2

DILUPBiCGStab:  Solving for h, Initial residual = 0.614808, Final residual = 0.000306246, No Iterations 1
GAMG:  Solving for p_rgh, Initial residual = 0.724256, Final residual = 0.00604447, No Iterations 17
time step continuity errors : sum local = 0.0106232, global = 1.70075e-16, cumulative = 1.66408e-16
rho min/max : 1.1317 1.20889
DILUPBiCGStab:  Solving for omega, Initial residual = 0.0219388, Final residual = 2.69501e-05, No Iterations 1
DILUPBiCGStab:  Solving for k, Initial residual = 0.359616, Final residual = 0.000760838, No Iterations 1
ExecutionTime = 2.66 s  ClockTime = 4 s

Time = 3

DILUPBiCGStab:  Solving for h, Initial residual = 0.0319165, Final residual = 3.42108e-05, No Iterations 1
GAMG:  Solving for p_rgh, Initial residual = 0.967912, Final residual = 0.000917636, No Iterations 1
time step continuity errors : sum local = 0.0522853, global = -3.25625e-17, cumulative = 1.33846e-16
rho min/max : 1.13191 1.20917
DILUPBiCGStab:  Solving for omega, Initial residual = 0.00554602, Final residual = 0.000200478, No Iterations 1
DILUPBiCGStab:  Solving for k, Initial residual = 0.0914323, Final residual = 0.000495147, No Iterations 1
ExecutionTime = 3.04 s  ClockTime = 5 s

Time = 4

DILUPBiCGStab:  Solving for h, Initial residual = 0.01726, Final residual = 7.45759e-05, No Iterations 1
GAMG:  Solving for p_rgh, Initial residual = 0.427068, Final residual = 0.00090356, No Iterations 1
time step continuity errors : sum local = 0.10248, global = 8.05348e-17, cumulative = 2.1438e-16
rho min/max : 1.1321 1.20938
DILUPBiCGStab:  Solving for omega, Initial residual = 0.00913098, Final residual = 6.94938e-05, No Iterations 1
DILUPBiCGStab:  Solving for k, Initial residual = 0.152389, Final residual = 0.000679344, No Iterations 1
ExecutionTime = 3.39 s  ClockTime = 5 s

Time = 5

DILUPBiCGStab:  Solving for h, Initial residual = 0.0129632, Final residual = 6.76716e-05, No Iterations 1
GAMG:  Solving for p_rgh, Initial residual = 0.20539, Final residual = 0.000791203, No Iterations 1
time step continuity errors : sum local = 0.121111, global = 2.12462e-16, cumulative = 4.26843e-16
rho min/max : 1.13225 1.20955
DILUPBiCGStab:  Solving for omega, Initial residual = 0.00374568, Final residual = 6.90625e-05, No Iterations 1
DILUPBiCGStab:  Solving for k, Initial residual = 0.135764, Final residual = 0.00102973, No Iterations 1
ExecutionTime = 3.75 s  ClockTime = 6 s

Time = 6

DILUPBiCGStab:  Solving for h, Initial residual = 0.0116922, Final residual = 6.90505e-05, No Iterations 1
GAMG:  Solving for p_rgh, Initial residual = 0.0979036, Final residual = 0.000788754, No Iterations 1
time step continuity errors : sum local = 0.124507, global = -1.23633e-16, cumulative = 3.03209e-16
rho min/max : 1.13238 1.20968
DILUPBiCGStab:  Solving for omega, Initial residual = 0.0033251, Final residual = 8.52521e-05, No Iterations 1
DILUPBiCGStab:  Solving for k, Initial residual = 0.0905833, Final residual = 0.00132183, No Iterations 1
ExecutionTime = 4.01 s  ClockTime = 6 s

Time = 7

DILUPBiCGStab:  Solving for h, Initial residual = 0.0113052, Final residual = 7.14403e-05, No Iterations 1
GAMG:  Solving for p_rgh, Initial residual = 0.0405578, Final residual = 0.000323903, No Iterations 11
time step continuity errors : sum local = 0.0523611, global = 7.47725e-17, cumulative = 3.77982e-16
rho min/max : 1.13249 1.2098
DILUPBiCGStab:  Solving for omega, Initial residual = 0.00267399, Final residual = 5.90722e-05, No Iterations 1
DILUPBiCGStab:  Solving for k, Initial residual = 0.242359, Final residual = 0.000922093, No Iterations 1
ExecutionTime = 4.4 s  ClockTime = 6 s

Time = 8

DILUPBiCGStab:  Solving for h, Initial residual = 0.01025, Final residual = 5.55115e-05, No Iterations 1
GAMG:  Solving for p_rgh, Initial residual = 0.0214068, Final residual = 0.000167614, No Iterations 3
time step continuity errors : sum local = 0.0334827, global = -3.85677e-17, cumulative = 3.39414e-16
rho min/max : 1.13256 1.20994
DILUPBiCGStab:  Solving for omega, Initial residual = 0.00151407, Final residual = 3.17375e-05, No Iterations 1
DILUPBiCGStab:  Solving for k, Initial residual = 0.29325, Final residual = 0.000994619, No Iterations 1
ExecutionTime = 4.61 s  ClockTime = 6 s

Time = 9

DILUPBiCGStab:  Solving for h, Initial residual = 0.0111932, Final residual = 5.71108e-05, No Iterations 1
GAMG:  Solving for p_rgh, Initial residual = 0.0268808, Final residual = 0.000235188, No Iterations 2
time step continuity errors : sum local = 0.05123, global = 3.92627e-17, cumulative = 3.78677e-16
rho min/max : 1.13265 1.21005
DILUPBiCGStab:  Solving for omega, Initial residual = 0.00104018, Final residual = 1.86716e-05, No Iterations 1
DILUPBiCGStab:  Solving for k, Initial residual = 0.13516, Final residual = 0.000800258, No Iterations 1
ExecutionTime = 4.81 s  ClockTime = 7 s

Time = 10

DILUPBiCGStab:  Solving for h, Initial residual = 0.0126276, Final residual = 5.07624e-05, No Iterations 1
GAMG:  Solving for p_rgh, Initial residual = 0.0335959, Final residual = 0.000150227, No Iterations 3
time step continuity errors : sum local = 0.0359573, global = -7.63797e-17, cumulative = 3.02297e-16
rho min/max : 1.13274 1.21014
DILUPBiCGStab:  Solving for omega, Initial residual = 0.00110269, Final residual = 1.52789e-05, No Iterations 1
DILUPBiCGStab:  Solving for k, Initial residual = 0.0581431, Final residual = 0.000787827, No Iterations 1
ExecutionTime = 5.06 s  ClockTime = 7 s

Time = 11

DILUPBiCGStab:  Solving for h, Initial residual = 0.0120267, Final residual = 4.01628e-05, No Iterations 1
GAMG:  Solving for p_rgh, Initial residual = 0.0438063, Final residual = 0.000334082, No Iterations 1
time step continuity errors : sum local = 0.0810792, global = -5.95196e-17, cumulative = 2.42778e-16
rho min/max : 1.13284 1.21023
DILUPBiCGStab:  Solving for omega, Initial residual = 0.000972202, Final residual = 2.30463e-05, No Iterations 1
DILUPBiCGStab:  Solving for k, Initial residual = 0.0537386, Final residual = 0.00121091, No Iterations 1
ExecutionTime = 5.3 s  ClockTime = 7 s

Time = 12

DILUPBiCGStab:  Solving for h, Initial residual = 0.0112186, Final residual = 6.01024e-05, No Iterations 1
GAMG:  Solving for p_rgh, Initial residual = 0.0498296, Final residual = 0.000493652, No Iterations 1
time step continuity errors : sum local = 0.10018, global = 2.91755e-17, cumulative = 2.71953e-16
rho min/max : 1.13293 1.21033
DILUPBiCGStab:  Solving for omega, Initial residual = 0.00077383, Final residual = 2.33882e-05, No Iterations 1
DILUPBiCGStab:  Solving for k, Initial residual = 0.069803, Final residual = 0.00151688, No Iterations 1
ExecutionTime = 5.54 s  ClockTime = 7 s

Time = 13

DILUPBiCGStab:  Solving for h, Initial residual = 0.0104438, Final residual = 7.38125e-05, No Iterations 1
GAMG:  Solving for p_rgh, Initial residual = 0.0429493, Final residual = 0.000419547, No Iterations 3
time step continuity errors : sum local = 0.0803837, global = -1.19877e-16, cumulative = 1.52076e-16
rho min/max : 1.13301 1.21041
DILUPBiCGStab:  Solving for omega, Initial residual = 0.000997575, Final residual = 2.2451e-05, No Iterations 1
DILUPBiCGStab:  Solving for k, Initial residual = 0.0484504, Final residual = 0.00115682, No Iterations 1
ExecutionTime = 5.78 s  ClockTime = 8 s

Time = 14

DILUPBiCGStab:  Solving for h, Initial residual = 0.0096851, Final residual = 5.70583e-05, No Iterations 1
GAMG:  Solving for p_rgh, Initial residual = 0.0333754, Final residual = 0.000293579, No Iterations 2
time step continuity errors : sum local = 0.0550924, global = 1.01175e-16, cumulative = 2.53251e-16
rho min/max : 1.13309 1.21047
DILUPBiCGStab:  Solving for omega, Initial residual = 0.000835411, Final residual = 2.02819e-05, No Iterations 1
DILUPBiCGStab:  Solving for k, Initial residual = 0.046124, Final residual = 0.00106179, No Iterations 1
ExecutionTime = 6.01 s  ClockTime = 8 s

Time = 15

DILUPBiCGStab:  Solving for h, Initial residual = 0.00918689, Final residual = 5.42859e-05, No Iterations 1
GAMG:  Solving for p_rgh, Initial residual = 0.0303873, Final residual = 0.000280848, No Iterations 2
time step continuity errors : sum local = 0.052491, global = -2.14478e-17, cumulative = 2.31803e-16
rho min/max : 1.13315 1.21052
DILUPBiCGStab:  Solving for omega, Initial residual = 0.000608348, Final residual = 1.47347e-05, No Iterations 1
DILUPBiCGStab:  Solving for k, Initial residual = 0.0501834, Final residual = 0.000862574, No Iterations 1
ExecutionTime = 6.26 s  ClockTime = 8 s

Time = 16

DILUPBiCGStab:  Solving for h, Initial residual = 0.00879812, Final residual = 4.65426e-05, No Iterations 1
GAMG:  Solving for p_rgh, Initial residual = 0.0280425, Final residual = 0.000265306, No Iterations 5
time step continuity errors : sum local = 0.0494829, global = -1.45705e-17, cumulative = 2.17233e-16
rho min/max : 1.13321 1.21058
DILUPBiCGStab:  Solving for omega, Initial residual = 0.000591179, Final residual = 1.11852e-05, No Iterations 1
DILUPBiCGStab:  Solving for k, Initial residual = 0.0566297, Final residual = 0.000709016, No Iterations 1
ExecutionTime = 6.58 s  ClockTime = 8 s

Time = 17

DILUPBiCGStab:  Solving for h, Initial residual = 0.00861813, Final residual = 3.79013e-05, No Iterations 1
GAMG:  Solving for p_rgh, Initial residual = 0.0281035, Final residual = 0.000157857, No Iterations 2
time step continuity errors : sum local = 0.0305619, global = 2.39426e-17, cumulative = 2.41175e-16
rho min/max : 1.13327 1.21064
DILUPBiCGStab:  Solving for omega, Initial residual = 0.000671671, Final residual = 1.04264e-05, No Iterations 1
DILUPBiCGStab:  Solving for k, Initial residual = 0.0468871, Final residual = 0.000494833, No Iterations 1
ExecutionTime = 6.83 s  ClockTime = 9 s

Time = 18

DILUPBiCGStab:  Solving for h, Initial residual = 0.00814849, Final residual = 3.00252e-05, No Iterations 1
GAMG:  Solving for p_rgh, Initial residual = 0.0299442, Final residual = 0.000230302, No Iterations 1
time step continuity errors : sum local = 0.0452162, global = -5.15523e-17, cumulative = 1.89623e-16
rho min/max : 1.13333 1.21071
DILUPBiCGStab:  Solving for omega, Initial residual = 0.00072356, Final residual = 1.42859e-05, No Iterations 1
DILUPBiCGStab:  Solving for k, Initial residual = 0.0441443, Final residual = 0.000427793, No Iterations 1
ExecutionTime = 7.06 s  ClockTime = 9 s

Time = 19

DILUPBiCGStab:  Solving for h, Initial residual = 0.00811037, Final residual = 2.88128e-05, No Iterations 1
GAMG:  Solving for p_rgh, Initial residual = 0.0304778, Final residual = 0.000294409, No Iterations 1
time step continuity errors : sum local = 0.0580026, global = 1.05494e-17, cumulative = 2.00172e-16
rho min/max : 1.13339 1.21077
DILUPBiCGStab:  Solving for omega, Initial residual = 0.000618519, Final residual = 1.53531e-05, No Iterations 1
DILUPBiCGStab:  Solving for k, Initial residual = 0.0401829, Final residual = 0.000410712, No Iterations 1
ExecutionTime = 7.28 s  ClockTime = 9 s

Time = 20

DILUPBiCGStab:  Solving for h, Initial residual = 0.00781725, Final residual = 3.05638e-05, No Iterations 1
GAMG:  Solving for p_rgh, Initial residual = 0.0307096, Final residual = 0.000176364, No Iterations 3
time step continuity errors : sum local = 0.0353635, global = -1.37938e-17, cumulative = 1.86378e-16
rho min/max : 1.13347 1.21086
DILUPBiCGStab:  Solving for omega, Initial residual = 0.000582541, Final residual = 1.35852e-05, No Iterations 1
DILUPBiCGStab:  Solving for k, Initial residual = 0.0294632, Final residual = 0.000329546, No Iterations 1
ExecutionTime = 7.53 s  ClockTime = 9 s

Time = 21

DILUPBiCGStab:  Solving for h, Initial residual = 0.00701781, Final residual = 2.92217e-05, No Iterations 1
GAMG:  Solving for p_rgh, Initial residual = 0.0305462, Final residual = 0.000232092, No Iterations 3
time step continuity errors : sum local = 0.0458911, global = -2.57737e-17, cumulative = 1.60605e-16
rho min/max : 1.13354 1.21094
DILUPBiCGStab:  Solving for omega, Initial residual = 0.000463561, Final residual = 9.96528e-06, No Iterations 1
DILUPBiCGStab:  Solving for k, Initial residual = 0.0199048, Final residual = 0.00027156, No Iterations 1
ExecutionTime = 7.73 s  ClockTime = 10 s

Time = 22

DILUPBiCGStab:  Solving for h, Initial residual = 0.00676533, Final residual = 2.88406e-05, No Iterations 1
GAMG:  Solving for p_rgh, Initial residual = 0.0273499, Final residual = 0.000197939, No Iterations 3
time step continuity errors : sum local = 0.037732, global = -1.83643e-17, cumulative = 1.4224e-16
rho min/max : 1.1336 1.21101
DILUPBiCGStab:  Solving for omega, Initial residual = 0.000362395, Final residual = 7.90338e-06, No Iterations 1
DILUPBiCGStab:  Solving for k, Initial residual = 0.0143075, Final residual = 0.00022838, No Iterations 1
ExecutionTime = 8.02 s  ClockTime = 10 s

Time = 23

DILUPBiCGStab:  Solving for h, Initial residual = 0.00640475, Final residual = 2.73514e-05, No Iterations 1
GAMG:  Solving for p_rgh, Initial residual = 0.0250945, Final residual = 0.000186827, No Iterations 3
time step continuity errors : sum local = 0.0357613, global = -6.2726e-17, cumulative = 7.95144e-17
rho min/max : 1.13367 1.21109
DILUPBiCGStab:  Solving for omega, Initial residual = 0.000309056, Final residual = 6.01296e-06, No Iterations 1
DILUPBiCGStab:  Solving for k, Initial residual = 0.0150981, Final residual = 0.000219813, No Iterations 1
ExecutionTime = 8.3 s  ClockTime = 10 s

Time = 24

DILUPBiCGStab:  Solving for h, Initial residual = 0.00616991, Final residual = 2.56135e-05, No Iterations 1
GAMG:  Solving for p_rgh, Initial residual = 0.023941, Final residual = 0.000235351, No Iterations 1
time step continuity errors : sum local = 0.0414322, global = -2.89942e-17, cumulative = 5.05202e-17
rho min/max : 1.13372 1.21115
DILUPBiCGStab:  Solving for omega, Initial residual = 0.00033162, Final residual = 5.74514e-06, No Iterations 1
DILUPBiCGStab:  Solving for k, Initial residual = 0.0219946, Final residual = 0.000262659, No Iterations 1
ExecutionTime = 8.55 s  ClockTime = 10 s

Time = 25

DILUPBiCGStab:  Solving for h, Initial residual = 0.00620805, Final residual = 2.41889e-05, No Iterations 1
GAMG:  Solving for p_rgh, Initial residual = 0.023318, Final residual = 0.000130956, No Iterations 2
time step continuity errors : sum local = 0.021671, global = 4.06957e-17, cumulative = 9.1216e-17
rho min/max : 1.13378 1.21121
DILUPBiCGStab:  Solving for omega, Initial residual = 0.000373456, Final residual = 5.49857e-06, No Iterations 1
DILUPBiCGStab:  Solving for k, Initial residual = 0.0257147, Final residual = 0.000282766, No Iterations 1
ExecutionTime = 8.8 s  ClockTime = 11 s

Time = 26

DILUPBiCGStab:  Solving for h, Initial residual = 0.00558371, Final residual = 2.14289e-05, No Iterations 1
GAMG:  Solving for p_rgh, Initial residual = 0.0242575, Final residual = 0.000182998, No Iterations 2
time step continuity errors : sum local = 0.028188, global = -1.42534e-17, cumulative = 7.69625e-17
rho min/max : 1.13384 1.21128
DILUPBiCGStab:  Solving for omega, Initial residual = 0.000355204, Final residual = 5.62218e-06, No Iterations 1
DILUPBiCGStab:  Solving for k, Initial residual = 0.0283661, Final residual = 0.000315594, No Iterations 1
ExecutionTime = 9.06 s  ClockTime = 11 s

Time = 27

DILUPBiCGStab:  Solving for h, Initial residual = 0.0052661, Final residual = 2.04138e-05, No Iterations 1
GAMG:  Solving for p_rgh, Initial residual = 0.022425, Final residual = 0.000209923, No Iterations 1
time step continuity errors : sum local = 0.0311204, global = -4.02041e-17, cumulative = 3.67584e-17
rho min/max : 1.13389 1.21134
DILUPBiCGStab:  Solving for omega, Initial residual = 0.000371876, Final residual = 6.33362e-06, No Iterations 1
DILUPBiCGStab:  Solving for k, Initial residual = 0.0296217, Final residual = 0.000359382, No Iterations 1
ExecutionTime = 9.28 s  ClockTime = 11 s

Time = 28

DILUPBiCGStab:  Solving for h, Initial residual = 0.00538293, Final residual = 2.01589e-05, No Iterations 1
GAMG:  Solving for p_rgh, Initial residual = 0.0203865, Final residual = 0.00016624, No Iterations 3
time step continuity errors : sum local = 0.0236525, global = 6.7777e-18, cumulative = 4.35361e-17
rho min/max : 1.13394 1.21138
DILUPBiCGStab:  Solving for omega, Initial residual = 0.000359224, Final residual = 6.97993e-06, No Iterations 1
DILUPBiCGStab:  Solving for k, Initial residual = 0.0283746, Final residual = 0.000382942, No Iterations 1
ExecutionTime = 9.57 s  ClockTime = 11 s

Time = 29

DILUPBiCGStab:  Solving for h, Initial residual = 0.0050782, Final residual = 1.93378e-05, No Iterations 1
GAMG:  Solving for p_rgh, Initial residual = 0.019912, Final residual = 0.000173253, No Iterations 3
time step continuity errors : sum local = 0.0238853, global = -2.22282e-17, cumulative = 2.1308e-17
rho min/max : 1.13399 1.21143
DILUPBiCGStab:  Solving for omega, Initial residual = 0.000301384, Final residual = 6.06756e-06, No Iterations 1
DILUPBiCGStab:  Solving for k, Initial residual = 0.0251698, Final residual = 0.00038901, No Iterations 1
ExecutionTime = 9.81 s  ClockTime = 12 s

Time = 30

DILUPBiCGStab:  Solving for h, Initial residual = 0.00491899, Final residual = 1.91473e-05, No Iterations 1
GAMG:  Solving for p_rgh, Initial residual = 0.0186748, Final residual = 0.000123872, No Iterations 3
time step continuity errors : sum local = 0.0166266, global = 2.19492e-18, cumulative = 2.35029e-17
rho min/max : 1.13403 1.21156
DILUPBiCGStab:  Solving for omega, Initial residual = 0.00019465, Final residual = 4.51747e-06, No Iterations 1
DILUPBiCGStab:  Solving for k, Initial residual = 0.0209742, Final residual = 0.000372595, No Iterations 1
ExecutionTime = 10.06 s  ClockTime = 12 s

Time = 31

DILUPBiCGStab:  Solving for h, Initial residual = 0.00472968, Final residual = 1.8957e-05, No Iterations 1
GAMG:  Solving for p_rgh, Initial residual = 0.0176003, Final residual = 0.000115324, No Iterations 3
time step continuity errors : sum local = 0.0159747, global = -5.84363e-17, cumulative = -3.49334e-17
rho min/max : 1.13407 1.21152
DILUPBiCGStab:  Solving for omega, Initial residual = 0.000162576, Final residual = 3.75199e-06, No Iterations 1
DILUPBiCGStab:  Solving for k, Initial residual = 0.0169772, Final residual = 0.00033504, No Iterations 1
ExecutionTime = 10.35 s  ClockTime = 12 s

Time = 32

DILUPBiCGStab:  Solving for h, Initial residual = 0.00460938, Final residual = 1.87137e-05, No Iterations 1
GAMG:  Solving for p_rgh, Initial residual = 0.016716, Final residual = 0.000150971, No Iterations 2
time step continuity errors : sum local = 0.0201748, global = -3.47758e-17, cumulative = -6.97093e-17
rho min/max : 1.13411 1.21203
DILUPBiCGStab:  Solving for omega, Initial residual = 0.000163004, Final residual = 3.69377e-06, No Iterations 1
DILUPBiCGStab:  Solving for k, Initial residual = 0.0156634, Final residual = 0.000304775, No Iterations 1
ExecutionTime = 10.52 s  ClockTime = 12 s

Time = 33

DILUPBiCGStab:  Solving for h, Initial residual = 0.00443478, Final residual = 1.81036e-05, No Iterations 1
GAMG:  Solving for p_rgh, Initial residual = 0.0160169, Final residual = 0.00012032, No Iterations 2
time step continuity errors : sum local = 0.0156776, global = -9.24791e-18, cumulative = -7.89572e-17
rho min/max : 1.13415 1.2116
DILUPBiCGStab:  Solving for omega, Initial residual = 0.000192046, Final residual = 4.05352e-06, No Iterations 1
DILUPBiCGStab:  Solving for k, Initial residual = 0.015662, Final residual = 0.000289639, No Iterations 1
ExecutionTime = 10.72 s  ClockTime = 13 s

Time = 34

DILUPBiCGStab:  Solving for h, Initial residual = 0.00438632, Final residual = 1.76293e-05, No Iterations 1
GAMG:  Solving for p_rgh, Initial residual = 0.0153344, Final residual = 9.63267e-05, No Iterations 3
time step continuity errors : sum local = 0.0123298, global = 1.35726e-17, cumulative = -6.53846e-17
rho min/max : 1.13418 1.21165
DILUPBiCGStab:  Solving for omega, Initial residual = 0.00018264, Final residual = 3.86744e-06, No Iterations 1
DILUPBiCGStab:  Solving for k, Initial residual = 0.0176055, Final residual = 0.000297296, No Iterations 1
ExecutionTime = 10.93 s  ClockTime = 13 s

Time = 35

DILUPBiCGStab:  Solving for h, Initial residual = 0.00428106, Final residual = 1.71215e-05, No Iterations 1
GAMG:  Solving for p_rgh, Initial residual = 0.0149641, Final residual = 7.5209e-05, No Iterations 2
time step continuity errors : sum local = 0.00941596, global = 1.18705e-17, cumulative = -5.35141e-17
rho min/max : 1.13422 1.21167
DILUPBiCGStab:  Solving for omega, Initial residual = 0.00018523, Final residual = 3.92832e-06, No Iterations 1
DILUPBiCGStab:  Solving for k, Initial residual = 0.0191134, Final residual = 0.000296553, No Iterations 1
ExecutionTime = 11.16 s  ClockTime = 13 s

Time = 36

DILUPBiCGStab:  Solving for h, Initial residual = 0.00419614, Final residual = 1.6627e-05, No Iterations 1
GAMG:  Solving for p_rgh, Initial residual = 0.0144934, Final residual = 4.83719e-05, No Iterations 2
time step continuity errors : sum local = 0.0060612, global = 4.93033e-17, cumulative = -4.21075e-18
rho min/max : 1.13425 1.21171
DILUPBiCGStab:  Solving for omega, Initial residual = 0.000221438, Final residual = 4.59048e-06, No Iterations 1
DILUPBiCGStab:  Solving for k, Initial residual = 0.0199096, Final residual = 0.000292709, No Iterations 1
ExecutionTime = 11.43 s  ClockTime = 13 s

Time = 37

DILUPBiCGStab:  Solving for h, Initial residual = 0.00414597, Final residual = 1.62643e-05, No Iterations 1
GAMG:  Solving for p_rgh, Initial residual = 0.014159, Final residual = 4.17952e-05, No Iterations 2
time step continuity errors : sum local = 0.00511007, global = 1.87072e-17, cumulative = 1.44964e-17
rho min/max : 1.13429 1.21174
DILUPBiCGStab:  Solving for omega, Initial residual = 0.000195708, Final residual = 4.10582e-06, No Iterations 1
DILUPBiCGStab:  Solving for k, Initial residual = 0.0201081, Final residual = 0.000291451, No Iterations 1
ExecutionTime = 11.68 s  ClockTime = 14 s

Time = 38

DILUPBiCGStab:  Solving for h, Initial residual = 0.00406111, Final residual = 1.61072e-05, No Iterations 1
GAMG:  Solving for p_rgh, Initial residual = 0.0139319, Final residual = 8.46277e-05, No Iterations 3
time step continuity errors : sum local = 0.00995827, global = -1.10815e-17, cumulative = 3.41493e-18
rho min/max : 1.13433 1.21178
DILUPBiCGStab:  Solving for omega, Initial residual = 0.000137847, Final residual = 3.12224e-06, No Iterations 1
DILUPBiCGStab:  Solving for k, Initial residual = 0.0190362, Final residual = 0.000287787, No Iterations 1
ExecutionTime = 11.95 s  ClockTime = 14 s

Time = 39

DILUPBiCGStab:  Solving for h, Initial residual = 0.00399565, Final residual = 1.59087e-05, No Iterations 1
GAMG:  Solving for p_rgh, Initial residual = 0.0136222, Final residual = 9.47839e-05, No Iterations 3
time step continuity errors : sum local = 0.0110594, global = -2.77708e-17, cumulative = -2.43558e-17
rho min/max : 1.13436 1.21182
DILUPBiCGStab:  Solving for omega, Initial residual = 0.000123063, Final residual = 2.78225e-06, No Iterations 1
DILUPBiCGStab:  Solving for k, Initial residual = 0.0170832, Final residual = 0.000274554, No Iterations 1
ExecutionTime = 12.24 s  ClockTime = 14 s

Time = 40

DILUPBiCGStab:  Solving for h, Initial residual = 0.00391584, Final residual = 1.57484e-05, No Iterations 1
GAMG:  Solving for p_rgh, Initial residual = 0.0133188, Final residual = 9.09048e-05, No Iterations 3
time step continuity errors : sum local = 0.0105486, global = -2.15928e-17, cumulative = -4.59486e-17
rho min/max : 1.1344 1.21186
DILUPBiCGStab:  Solving for omega, Initial residual = 0.000118499, Final residual = 2.71712e-06, No Iterations 1
DILUPBiCGStab:  Solving for k, Initial residual = 0.0155559, Final residual = 0.000254727, No Iterations 1
ExecutionTime = 12.52 s  ClockTime = 15 s

Time = 41

DILUPBiCGStab:  Solving for h, Initial residual = 0.00383399, Final residual = 1.55373e-05, No Iterations 1
GAMG:  Solving for p_rgh, Initial residual = 0.0128979, Final residual = 9.0579e-05, No Iterations 3
time step continuity errors : sum local = 0.0104069, global = 2.10594e-17, cumulative = -2.48892e-17
rho min/max : 1.13443 1.2119
DILUPBiCGStab:  Solving for omega, Initial residual = 0.000119293, Final residual = 2.76148e-06, No Iterations 1
DILUPBiCGStab:  Solving for k, Initial residual = 0.0166416, Final residual = 0.000280345, No Iterations 1
ExecutionTime = 12.77 s  ClockTime = 15 s

Time = 42

DILUPBiCGStab:  Solving for h, Initial residual = 0.00376275, Final residual = 1.53277e-05, No Iterations 1
GAMG:  Solving for p_rgh, Initial residual = 0.0125316, Final residual = 8.70319e-05, No Iterations 2
time step continuity errors : sum local = 0.00978094, global = -2.27124e-17, cumulative = -4.76016e-17
rho min/max : 1.13447 1.21194
DILUPBiCGStab:  Solving for omega, Initial residual = 0.000148972, Final residual = 3.61242e-06, No Iterations 1
DILUPBiCGStab:  Solving for k, Initial residual = 0.0187206, Final residual = 0.00031452, No Iterations 1
ExecutionTime = 13.02 s  ClockTime = 15 s

Time = 43

DILUPBiCGStab:  Solving for h, Initial residual = 0.00363413, Final residual = 1.51488e-05, No Iterations 1
GAMG:  Solving for p_rgh, Initial residual = 0.0121776, Final residual = 0.000109443, No Iterations 2
time step continuity errors : sum local = 0.0123108, global = -8.29923e-18, cumulative = -5.59008e-17
rho min/max : 1.13451 1.21198
DILUPBiCGStab:  Solving for omega, Initial residual = 0.000128302, Final residual = 3.10737e-06, No Iterations 1
DILUPBiCGStab:  Solving for k, Initial residual = 0.0215252, Final residual = 0.000344414, No Iterations 1
ExecutionTime = 13.25 s  ClockTime = 15 s

Time = 44

DILUPBiCGStab:  Solving for h, Initial residual = 0.00354025, Final residual = 1.48432e-05, No Iterations 1
GAMG:  Solving for p_rgh, Initial residual = 0.0116635, Final residual = 0.000103322, No Iterations 1
time step continuity errors : sum local = 0.0113885, global = -6.88708e-18, cumulative = -6.27879e-17
rho min/max : 1.13454 1.21202
DILUPBiCGStab:  Solving for omega, Initial residual = 0.000142366, Final residual = 3.62018e-06, No Iterations 1
DILUPBiCGStab:  Solving for k, Initial residual = 0.0230174, Final residual = 0.000358427, No Iterations 1
ExecutionTime = 13.52 s  ClockTime = 16 s

Time = 45

DILUPBiCGStab:  Solving for h, Initial residual = 0.00361796, Final residual = 1.51029e-05, No Iterations 1
GAMG:  Solving for p_rgh, Initial residual = 0.011309, Final residual = 3.99468e-05, No Iterations 2
time step continuity errors : sum local = 0.00444425, global = -2.90821e-17, cumulative = -9.18699e-17
rho min/max : 1.13457 1.21205
DILUPBiCGStab:  Solving for omega, Initial residual = 0.000122701, Final residual = 3.21917e-06, No Iterations 1
DILUPBiCGStab:  Solving for k, Initial residual = 0.0240564, Final residual = 0.000374919, No Iterations 1
ExecutionTime = 13.74 s  ClockTime = 16 s

Time = 46

DILUPBiCGStab:  Solving for h, Initial residual = 0.00349202, Final residual = 1.4783e-05, No Iterations 1
GAMG:  Solving for p_rgh, Initial residual = 0.011307, Final residual = 5.50982e-05, No Iterations 2
time step continuity errors : sum local = 0.00592899, global = 2.72902e-17, cumulative = -6.45797e-17
rho min/max : 1.1346 1.21208
DILUPBiCGStab:  Solving for omega, Initial residual = 0.000121512, Final residual = 3.32082e-06, No Iterations 1
DILUPBiCGStab:  Solving for k, Initial residual = 0.0245702, Final residual = 0.000387067, No Iterations 1
ExecutionTime = 13.91 s  ClockTime = 16 s

Time = 47

DILUPBiCGStab:  Solving for h, Initial residual = 0.00344448, Final residual = 1.4684e-05, No Iterations 1
GAMG:  Solving for p_rgh, Initial residual = 0.0110586, Final residual = 5.57966e-05, No Iterations 2
time step continuity errors : sum local = 0.00586445, global = -2.31867e-17, cumulative = -8.77664e-17
rho min/max : 1.13463 1.21212
DILUPBiCGStab:  Solving for omega, Initial residual = 0.000118931, Final residual = 3.35512e-06, No Iterations 1
DILUPBiCGStab:  Solving for k, Initial residual = 0.0244384, Final residual = 0.000392441, No Iterations 1
ExecutionTime = 14.08 s  ClockTime = 16 s

Time = 48

DILUPBiCGStab:  Solving for h, Initial residual = 0.00338886, Final residual = 1.46752e-05, No Iterations 1
GAMG:  Solving for p_rgh, Initial residual = 0.0107598, Final residual = 4.95203e-05, No Iterations 2
time step continuity errors : sum local = 0.00508747, global = 1.4793e-17, cumulative = -7.29735e-17
rho min/max : 1.13466 1.21215
DILUPBiCGStab:  Solving for omega, Initial residual = 0.000118606, Final residual = 3.41151e-06, No Iterations 1
DILUPBiCGStab:  Solving for k, Initial residual = 0.0236605, Final residual = 0.000390069, No Iterations 1
ExecutionTime = 14.27 s  ClockTime = 16 s

Time = 49

DILUPBiCGStab:  Solving for h, Initial residual = 0.00332479, Final residual = 1.45112e-05, No Iterations 1
GAMG:  Solving for p_rgh, Initial residual = 0.0105345, Final residual = 7.4559e-05, No Iterations 2
time step continuity errors : sum local = 0.00760238, global = 2.92498e-17, cumulative = -4.37237e-17
rho min/max : 1.13469 1.21218
DILUPBiCGStab:  Solving for omega, Initial residual = 0.000121935, Final residual = 3.52913e-06, No Iterations 1
DILUPBiCGStab:  Solving for k, Initial residual = 0.0225988, Final residual = 0.000389859, No Iterations 1
ExecutionTime = 14.51 s  ClockTime = 17 s

Time = 50

DILUPBiCGStab:  Solving for h, Initial residual = 0.00324545, Final residual = 1.4361e-05, No Iterations 1
GAMG:  Solving for p_rgh, Initial residual = 0.010306, Final residual = 4.5505e-05, No Iterations 3
time step continuity errors : sum local = 0.00474604, global = -4.20303e-18, cumulative = -4.79267e-17
rho min/max : 1.13472 1.21221
DILUPBiCGStab:  Solving for omega, Initial residual = 0.000124377, Final residual = 3.5892e-06, No Iterations 1
DILUPBiCGStab:  Solving for k, Initial residual = 0.0202145, Final residual = 0.000366675, No Iterations 1
ExecutionTime = 15.2 s  ClockTime = 17 s

Time = 51

DILUPBiCGStab:  Solving for h, Initial residual = 0.00322212, Final residual = 1.43165e-05, No Iterations 1
GAMG:  Solving for p_rgh, Initial residual = 0.00994486, Final residual = 5.46385e-05, No Iterations 2
time step continuity errors : sum local = 0.00551699, global = -2.73935e-18, cumulative = -5.0666e-17
rho min/max : 1.13475 1.21224
DILUPBiCGStab:  Solving for omega, Initial residual = 0.000114909, Final residual = 3.40141e-06, No Iterations 1
DILUPBiCGStab:  Solving for k, Initial residual = 0.0191433, Final residual = 0.000355002, No Iterations 1
ExecutionTime = 15.48 s  ClockTime = 18 s

Time = 52

DILUPBiCGStab:  Solving for h, Initial residual = 0.00317209, Final residual = 1.42096e-05, No Iterations 1
GAMG:  Solving for p_rgh, Initial residual = 0.00980127, Final residual = 6.97963e-05, No Iterations 3
time step continuity errors : sum local = 0.0068984, global = 1.05856e-17, cumulative = -4.00804e-17
rho min/max : 1.13478 1.21227
DILUPBiCGStab:  Solving for omega, Initial residual = 0.00012682, Final residual = 3.83342e-06, No Iterations 1
DILUPBiCGStab:  Solving for k, Initial residual = 0.0179087, Final residual = 0.000326246, No Iterations 1
ExecutionTime = 15.73 s  ClockTime = 18 s

Time = 53

DILUPBiCGStab:  Solving for h, Initial residual = 0.00316556, Final residual = 1.41574e-05, No Iterations 1
GAMG:  Solving for p_rgh, Initial residual = 0.00958049, Final residual = 3.9229e-05, No Iterations 2
time step continuity errors : sum local = 0.00387227, global = 4.17231e-19, cumulative = -3.96632e-17
rho min/max : 1.1348 1.2123
DILUPBiCGStab:  Solving for omega, Initial residual = 0.000115876, Final residual = 3.49458e-06, No Iterations 1
DILUPBiCGStab:  Solving for k, Initial residual = 0.0174745, Final residual = 0.000320584, No Iterations 1
ExecutionTime = 15.95 s  ClockTime = 18 s

Time = 54

DILUPBiCGStab:  Solving for h, Initial residual = 0.003119, Final residual = 1.40184e-05, No Iterations 1
GAMG:  Solving for p_rgh, Initial residual = 0.00948371, Final residual = 3.82823e-05, No Iterations 2
time step continuity errors : sum local = 0.00375568, global = 9.46174e-18, cumulative = -3.02014e-17
rho min/max : 1.13483 1.21233
DILUPBiCGStab:  Solving for omega, Initial residual = 0.000109478, Final residual = 3.48675e-06, No Iterations 1
DILUPBiCGStab:  Solving for k, Initial residual = 0.0173519, Final residual = 0.000318895, No Iterations 1
ExecutionTime = 16.2 s  ClockTime = 18 s

Time = 55

DILUPBiCGStab:  Solving for h, Initial residual = 0.00308408, Final residual = 1.39129e-05, No Iterations 1
GAMG:  Solving for p_rgh, Initial residual = 0.00937037, Final residual = 3.84069e-05, No Iterations 2
time step continuity errors : sum local = 0.00373789, global = 4.17654e-20, cumulative = -3.01597e-17
rho min/max : 1.13486 1.21236
DILUPBiCGStab:  Solving for omega, Initial residual = 0.000110058, Final residual = 3.36443e-06, No Iterations 1
DILUPBiCGStab:  Solving for k, Initial residual = 0.0173456, Final residual = 0.00032041, No Iterations 1
ExecutionTime = 16.41 s  ClockTime = 19 s

Time = 56

DILUPBiCGStab:  Solving for h, Initial residual = 0.00304925, Final residual = 1.382e-05, No Iterations 1
GAMG:  Solving for p_rgh, Initial residual = 0.00918509, Final residual = 4.15165e-05, No Iterations 2
time step continuity errors : sum local = 0.00399816, global = -5.50573e-18, cumulative = -3.56654e-17
rho min/max : 1.13489 1.21238
DILUPBiCGStab:  Solving for omega, Initial residual = 0.000110048, Final residual = 3.459e-06, No Iterations 1
DILUPBiCGStab:  Solving for k, Initial residual = 0.0172934, Final residual = 0.000321365, No Iterations 1
ExecutionTime = 16.63 s  ClockTime = 19 s

Time = 57

DILUPBiCGStab:  Solving for h, Initial residual = 0.00301673, Final residual = 1.37021e-05, No Iterations 1
GAMG:  Solving for p_rgh, Initial residual = 0.00903641, Final residual = 4.52972e-05, No Iterations 2
time step continuity errors : sum local = 0.00432714, global = 1.04756e-17, cumulative = -2.51898e-17
rho min/max : 1.13491 1.21241
DILUPBiCGStab:  Solving for omega, Initial residual = 0.000109644, Final residual = 3.42797e-06, No Iterations 1
DILUPBiCGStab:  Solving for k, Initial residual = 0.0172542, Final residual = 0.000322197, No Iterations 1
ExecutionTime = 16.79 s  ClockTime = 19 s

Time = 58

DILUPBiCGStab:  Solving for h, Initial residual = 0.00298549, Final residual = 1.35509e-05, No Iterations 1
GAMG:  Solving for p_rgh, Initial residual = 0.00887403, Final residual = 4.69188e-05, No Iterations 2
time step continuity errors : sum local = 0.00442748, global = 3.50572e-17, cumulative = 9.86749e-18
rho min/max : 1.13494 1.21244
DILUPBiCGStab:  Solving for omega, Initial residual = 0.000109378, Final residual = 3.44891e-06, No Iterations 1
DILUPBiCGStab:  Solving for k, Initial residual = 0.0173256, Final residual = 0.000325784, No Iterations 1
ExecutionTime = 17 s  ClockTime = 19 s

Time = 59

DILUPBiCGStab:  Solving for h, Initial residual = 0.00295271, Final residual = 1.34163e-05, No Iterations 1
GAMG:  Solving for p_rgh, Initial residual = 0.00872354, Final residual = 4.55443e-05, No Iterations 2
time step continuity errors : sum local = 0.00427038, global = -5.74538e-18, cumulative = 4.12211e-18
rho min/max : 1.13496 1.21247
DILUPBiCGStab:  Solving for omega, Initial residual = 0.000109266, Final residual = 3.44881e-06, No Iterations 1
DILUPBiCGStab:  Solving for k, Initial residual = 0.0174254, Final residual = 0.000330421, No Iterations 1
ExecutionTime = 17.19 s  ClockTime = 19 s

Time = 60

DILUPBiCGStab:  Solving for h, Initial residual = 0.00291937, Final residual = 1.32974e-05, No Iterations 1
GAMG:  Solving for p_rgh, Initial residual = 0.00853124, Final residual = 4.20082e-05, No Iterations 2
time step continuity errors : sum local = 0.00390115, global = 4.79416e-18, cumulative = 8.91628e-18
rho min/max : 1.13499 1.2125
DILUPBiCGStab:  Solving for omega, Initial residual = 0.00010902, Final residual = 3.44301e-06, No Iterations 1
DILUPBiCGStab:  Solving for k, Initial residual = 0.0175467, Final residual = 0.000338834, No Iterations 1
ExecutionTime = 17.35 s  ClockTime = 19 s

Time = 61

DILUPBiCGStab:  Solving for h, Initial residual = 0.00288623, Final residual = 1.32087e-05, No Iterations 1
GAMG:  Solving for p_rgh, Initial residual = 0.00838156, Final residual = 4.45731e-05, No Iterations 2
time step continuity errors : sum local = 0.00410375, global = 8.67654e-19, cumulative = 9.78393e-18
rho min/max : 1.13501 1.21252
DILUPBiCGStab:  Solving for omega, Initial residual = 0.000108423, Final residual = 3.44459e-06, No Iterations 1
DILUPBiCGStab:  Solving for k, Initial residual = 0.017737, Final residual = 0.000351509, No Iterations 1
ExecutionTime = 17.54 s  ClockTime = 20 s

Time = 62

DILUPBiCGStab:  Solving for h, Initial residual = 0.00284627, Final residual = 1.29777e-05, No Iterations 1
GAMG:  Solving for p_rgh, Initial residual = 0.00829936, Final residual = 6.54528e-05, No Iterations 2
time step continuity errors : sum local = 0.0059131, global = 2.64091e-17, cumulative = 3.6193e-17
rho min/max : 1.13504 1.21255
DILUPBiCGStab:  Solving for omega, Initial residual = 0.000108832, Final residual = 3.41248e-06, No Iterations 1
DILUPBiCGStab:  Solving for k, Initial residual = 0.0180381, Final residual = 0.000369013, No Iterations 1
ExecutionTime = 17.72 s  ClockTime = 20 s

Time = 63

DILUPBiCGStab:  Solving for h, Initial residual = 0.00280359, Final residual = 1.28966e-05, No Iterations 1
GAMG:  Solving for p_rgh, Initial residual = 0.00818038, Final residual = 3.38157e-05, No Iterations 3
time step continuity errors : sum local = 0.00304715, global = 1.16726e-17, cumulative = 4.78656e-17
rho min/max : 1.13506 1.21258
DILUPBiCGStab:  Solving for omega, Initial residual = 0.000109721, Final residual = 3.48839e-06, No Iterations 1
DILUPBiCGStab:  Solving for k, Initial residual = 0.0183732, Final residual = 0.000380894, No Iterations 1
ExecutionTime = 17.91 s  ClockTime = 20 s

Time = 64

DILUPBiCGStab:  Solving for h, Initial residual = 0.0028028, Final residual = 1.28974e-05, No Iterations 1
GAMG:  Solving for p_rgh, Initial residual = 0.00805615, Final residual = 2.77663e-05, No Iterations 2
time step continuity errors : sum local = 0.00248485, global = -1.09045e-17, cumulative = 3.69611e-17
rho min/max : 1.13509 1.2126
DILUPBiCGStab:  Solving for omega, Initial residual = 0.000104773, Final residual = 3.29806e-06, No Iterations 1
DILUPBiCGStab:  Solving for k, Initial residual = 0.0188589, Final residual = 0.000391734, No Iterations 1
ExecutionTime = 18.08 s  ClockTime = 20 s

Time = 65

DILUPBiCGStab:  Solving for h, Initial residual = 0.00277604, Final residual = 1.2783e-05, No Iterations 1
GAMG:  Solving for p_rgh, Initial residual = 0.00797851, Final residual = 3.32919e-05, No Iterations 2
time step continuity errors : sum local = 0.00296044, global = -1.91091e-17, cumulative = 1.7852e-17
rho min/max : 1.13511 1.21263
DILUPBiCGStab:  Solving for omega, Initial residual = 0.000100735, Final residual = 3.29437e-06, No Iterations 1
DILUPBiCGStab:  Solving for k, Initial residual = 0.0191114, Final residual = 0.000396703, No Iterations 1
ExecutionTime = 18.25 s  ClockTime = 20 s

Time = 66

DILUPBiCGStab:  Solving for h, Initial residual = 0.00275309, Final residual = 1.26611e-05, No Iterations 1
GAMG:  Solving for p_rgh, Initial residual = 0.00794262, Final residual = 3.51468e-05, No Iterations 2
time step continuity errors : sum local = 0.00309874, global = -2.24481e-17, cumulative = -4.5961e-18
rho min/max : 1.13514 1.21265
DILUPBiCGStab:  Solving for omega, Initial residual = 9.96815e-05, Final residual = 3.21657e-06, No Iterations 1
DILUPBiCGStab:  Solving for k, Initial residual = 0.0190957, Final residual = 0.000400504, No Iterations 1
ExecutionTime = 18.44 s  ClockTime = 21 s

Time = 67

DILUPBiCGStab:  Solving for h, Initial residual = 0.00272745, Final residual = 1.25984e-05, No Iterations 1
GAMG:  Solving for p_rgh, Initial residual = 0.00781582, Final residual = 3.67718e-05, No Iterations 2
time step continuity errors : sum local = 0.00321992, global = -8.24385e-18, cumulative = -1.28399e-17
rho min/max : 1.13516 1.21268
DILUPBiCGStab:  Solving for omega, Initial residual = 9.96849e-05, Final residual = 3.31102e-06, No Iterations 1
DILUPBiCGStab:  Solving for k, Initial residual = 0.0189389, Final residual = 0.000403163, No Iterations 1
ExecutionTime = 18.61 s  ClockTime = 21 s

Time = 68

DILUPBiCGStab:  Solving for h, Initial residual = 0.00269718, Final residual = 1.25032e-05, No Iterations 1
GAMG:  Solving for p_rgh, Initial residual = 0.00769425, Final residual = 4.44342e-05, No Iterations 2
time step continuity errors : sum local = 0.00385644, global = 8.66538e-18, cumulative = -4.17456e-18
rho min/max : 1.13518 1.21271
DILUPBiCGStab:  Solving for omega, Initial residual = 0.000100868, Final residual = 3.36053e-06, No Iterations 1
DILUPBiCGStab:  Solving for k, Initial residual = 0.0187067, Final residual = 0.000407977, No Iterations 1
ExecutionTime = 18.79 s  ClockTime = 21 s

Time = 69

DILUPBiCGStab:  Solving for h, Initial residual = 0.0026659, Final residual = 1.23604e-05, No Iterations 1
GAMG:  Solving for p_rgh, Initial residual = 0.00758378, Final residual = 5.27728e-05, No Iterations 2
time step continuity errors : sum local = 0.00454537, global = 2.11995e-18, cumulative = -2.05461e-18
rho min/max : 1.13521 1.21273
DILUPBiCGStab:  Solving for omega, Initial residual = 9.94456e-05, Final residual = 3.33907e-06, No Iterations 1
DILUPBiCGStab:  Solving for k, Initial residual = 0.018422, Final residual = 0.000411382, No Iterations 1
ExecutionTime = 18.95 s  ClockTime = 21 s

Time = 70

DILUPBiCGStab:  Solving for h, Initial residual = 0.00263923, Final residual = 1.22974e-05, No Iterations 1
GAMG:  Solving for p_rgh, Initial residual = 0.00742843, Final residual = 4.7793e-05, No Iterations 2
time step continuity errors : sum local = 0.00412917, global = 4.63316e-19, cumulative = -1.59129e-18
rho min/max : 1.13523 1.21276
DILUPBiCGStab:  Solving for omega, Initial residual = 9.79891e-05, Final residual = 3.33821e-06, No Iterations 1
DILUPBiCGStab:  Solving for k, Initial residual = 0.0180606, Final residual = 0.000413412, No Iterations 1
ExecutionTime = 19.14 s  ClockTime = 21 s

Time = 71

DILUPBiCGStab:  Solving for h, Initial residual = 0.0026183, Final residual = 1.22077e-05, No Iterations 1
GAMG:  Solving for p_rgh, Initial residual = 0.00733622, Final residual = 4.25758e-05, No Iterations 2
time step continuity errors : sum local = 0.00363854, global = -1.90783e-17, cumulative = -2.06696e-17
rho min/max : 1.13525 1.21278
DILUPBiCGStab:  Solving for omega, Initial residual = 9.88187e-05, Final residual = 3.28358e-06, No Iterations 1
DILUPBiCGStab:  Solving for k, Initial residual = 0.0178348, Final residual = 0.00041529, No Iterations 1
ExecutionTime = 19.32 s  ClockTime = 21 s

Time = 72

DILUPBiCGStab:  Solving for h, Initial residual = 0.00260137, Final residual = 1.21323e-05, No Iterations 1
GAMG:  Solving for p_rgh, Initial residual = 0.0072638, Final residual = 3.99233e-05, No Iterations 2
time step continuity errors : sum local = 0.00338501, global = 2.26644e-17, cumulative = 1.99481e-18
rho min/max : 1.13528 1.2128
DILUPBiCGStab:  Solving for omega, Initial residual = 9.84026e-05, Final residual = 3.45693e-06, No Iterations 1
DILUPBiCGStab:  Solving for k, Initial residual = 0.0176998, Final residual = 0.000418743, No Iterations 1
ExecutionTime = 19.52 s  ClockTime = 22 s

Time = 73

DILUPBiCGStab:  Solving for h, Initial residual = 0.00258763, Final residual = 1.20791e-05, No Iterations 1
GAMG:  Solving for p_rgh, Initial residual = 0.00723247, Final residual = 4.14221e-05, No Iterations 2
time step continuity errors : sum local = 0.003494, global = 9.31673e-18, cumulative = 1.13115e-17
rho min/max : 1.1353 1.21283
DILUPBiCGStab:  Solving for omega, Initial residual = 9.84077e-05, Final residual = 3.26165e-06, No Iterations 1
DILUPBiCGStab:  Solving for k, Initial residual = 0.0175402, Final residual = 0.000419347, No Iterations 1
ExecutionTime = 19.69 s  ClockTime = 22 s

Time = 74

DILUPBiCGStab:  Solving for h, Initial residual = 0.0025723, Final residual = 1.20159e-05, No Iterations 1
GAMG:  Solving for p_rgh, Initial residual = 0.00722575, Final residual = 4.14369e-05, No Iterations 2
time step continuity errors : sum local = 0.00347494, global = -1.06182e-18, cumulative = 1.02497e-17
rho min/max : 1.13532 1.21285
DILUPBiCGStab:  Solving for omega, Initial residual = 9.70163e-05, Final residual = 3.41799e-06, No Iterations 1
DILUPBiCGStab:  Solving for k, Initial residual = 0.0173667, Final residual = 0.000425473, No Iterations 1
ExecutionTime = 19.86 s  ClockTime = 22 s

Time = 75

DILUPBiCGStab:  Solving for h, Initial residual = 0.00255694, Final residual = 1.19382e-05, No Iterations 1
GAMG:  Solving for p_rgh, Initial residual = 0.00711482, Final residual = 3.90757e-05, No Iterations 2
time step continuity errors : sum local = 0.00324825, global = -1.70088e-18, cumulative = 8.54883e-18
rho min/max : 1.13534 1.21287
DILUPBiCGStab:  Solving for omega, Initial residual = 9.72918e-05, Final residual = 3.36497e-06, No Iterations 1
DILUPBiCGStab:  Solving for k, Initial residual = 0.0171969, Final residual = 0.000428351, No Iterations 1
ExecutionTime = 20.07 s  ClockTime = 22 s

Time = 76

DILUPBiCGStab:  Solving for h, Initial residual = 0.00253687, Final residual = 1.17787e-05, No Iterations 1
GAMG:  Solving for p_rgh, Initial residual = 0.00703364, Final residual = 3.63628e-05, No Iterations 2
time step continuity errors : sum local = 0.00301176, global = 2.48004e-18, cumulative = 1.10289e-17
rho min/max : 1.13536 1.2129
DILUPBiCGStab:  Solving for omega, Initial residual = 9.74113e-05, Final residual = 3.53394e-06, No Iterations 1
DILUPBiCGStab:  Solving for k, Initial residual = 0.0170165, Final residual = 0.000432922, No Iterations 1
ExecutionTime = 20.24 s  ClockTime = 22 s

Time = 77

DILUPBiCGStab:  Solving for h, Initial residual = 0.00251816, Final residual = 1.1668e-05, No Iterations 1
GAMG:  Solving for p_rgh, Initial residual = 0.00694627, Final residual = 3.4158e-05, No Iterations 2
time step continuity errors : sum local = 0.0028164, global = 1.38872e-18, cumulative = 1.24176e-17
rho min/max : 1.13539 1.21292
DILUPBiCGStab:  Solving for omega, Initial residual = 9.84029e-05, Final residual = 3.44483e-06, No Iterations 1
DILUPBiCGStab:  Solving for k, Initial residual = 0.0168588, Final residual = 0.000438884, No Iterations 1
ExecutionTime = 20.41 s  ClockTime = 23 s

Time = 78

DILUPBiCGStab:  Solving for h, Initial residual = 0.00249658, Final residual = 1.15486e-05, No Iterations 1
GAMG:  Solving for p_rgh, Initial residual = 0.00686694, Final residual = 3.35548e-05, No Iterations 2
time step continuity errors : sum local = 0.0027291, global = 8.43065e-19, cumulative = 1.32607e-17
rho min/max : 1.13541 1.21294
DILUPBiCGStab:  Solving for omega, Initial residual = 9.71599e-05, Final residual = 3.76753e-06, No Iterations 1
DILUPBiCGStab:  Solving for k, Initial residual = 0.0167084, Final residual = 0.000441959, No Iterations 1
ExecutionTime = 20.58 s  ClockTime = 23 s

Time = 79

DILUPBiCGStab:  Solving for h, Initial residual = 0.00247751, Final residual = 1.14619e-05, No Iterations 1
GAMG:  Solving for p_rgh, Initial residual = 0.00674454, Final residual = 3.3924e-05, No Iterations 2
time step continuity errors : sum local = 0.00273604, global = -4.65529e-18, cumulative = 8.60536e-18
rho min/max : 1.13543 1.21297
DILUPBiCGStab:  Solving for omega, Initial residual = 9.8745e-05, Final residual = 3.61909e-06, No Iterations 1
DILUPBiCGStab:  Solving for k, Initial residual = 0.0165744, Final residual = 0.000446682, No Iterations 1
ExecutionTime = 20.75 s  ClockTime = 23 s

Time = 80

DILUPBiCGStab:  Solving for h, Initial residual = 0.00245595, Final residual = 1.12557e-05, No Iterations 1
GAMG:  Solving for p_rgh, Initial residual = 0.00664768, Final residual = 3.40982e-05, No Iterations 2
time step continuity errors : sum local = 0.00273198, global = 9.65223e-18, cumulative = 1.82576e-17
rho min/max : 1.13545 1.21299
DILUPBiCGStab:  Solving for omega, Initial residual = 9.91203e-05, Final residual = 3.84e-06, No Iterations 1
DILUPBiCGStab:  Solving for k, Initial residual = 0.0164791, Final residual = 0.000451477, No Iterations 1
ExecutionTime = 20.92 s  ClockTime = 23 s

Time = 81

DILUPBiCGStab:  Solving for h, Initial residual = 0.00243635, Final residual = 1.1174e-05, No Iterations 1
GAMG:  Solving for p_rgh, Initial residual = 0.00651113, Final residual = 3.41466e-05, No Iterations 2
time step continuity errors : sum local = 0.00274471, global = 3.03553e-18, cumulative = 2.12931e-17
rho min/max : 1.13547 1.21301
DILUPBiCGStab:  Solving for omega, Initial residual = 9.99063e-05, Final residual = 3.73774e-06, No Iterations 1
DILUPBiCGStab:  Solving for k, Initial residual = 0.0164654, Final residual = 0.000456081, No Iterations 1
ExecutionTime = 21.08 s  ClockTime = 23 s

Time = 82

DILUPBiCGStab:  Solving for h, Initial residual = 0.00241829, Final residual = 1.10823e-05, No Iterations 1
GAMG:  Solving for p_rgh, Initial residual = 0.00640753, Final residual = 3.42317e-05, No Iterations 2
time step continuity errors : sum local = 0.00274081, global = 5.36882e-17, cumulative = 7.49814e-17
rho min/max : 1.13549 1.21303
DILUPBiCGStab:  Solving for omega, Initial residual = 9.93356e-05, Final residual = 3.83971e-06, No Iterations 1
DILUPBiCGStab:  Solving for k, Initial residual = 0.016472, Final residual = 0.000464339, No Iterations 1
ExecutionTime = 21.25 s  ClockTime = 23 s

Time = 83

DILUPBiCGStab:  Solving for h, Initial residual = 0.00239923, Final residual = 1.09186e-05, No Iterations 1
GAMG:  Solving for p_rgh, Initial residual = 0.00637382, Final residual = 3.50868e-05, No Iterations 2
time step continuity errors : sum local = 0.00279961, global = 5.01292e-18, cumulative = 7.99943e-17
rho min/max : 1.13551 1.21305
DILUPBiCGStab:  Solving for omega, Initial residual = 9.9083e-05, Final residual = 3.84285e-06, No Iterations 1
DILUPBiCGStab:  Solving for k, Initial residual = 0.0165246, Final residual = 0.000471922, No Iterations 1
ExecutionTime = 21.42 s  ClockTime = 24 s

Time = 84

DILUPBiCGStab:  Solving for h, Initial residual = 0.00238016, Final residual = 1.07521e-05, No Iterations 1
GAMG:  Solving for p_rgh, Initial residual = 0.00632153, Final residual = 3.53172e-05, No Iterations 2
time step continuity errors : sum local = 0.00280061, global = -3.124e-18, cumulative = 7.68703e-17
rho min/max : 1.13553 1.21307
DILUPBiCGStab:  Solving for omega, Initial residual = 9.80294e-05, Final residual = 3.75863e-06, No Iterations 1
DILUPBiCGStab:  Solving for k, Initial residual = 0.0165406, Final residual = 0.000474966, No Iterations 1
ExecutionTime = 21.61 s  ClockTime = 24 s

Time = 85

DILUPBiCGStab:  Solving for h, Initial residual = 0.00235994, Final residual = 1.06481e-05, No Iterations 1
GAMG:  Solving for p_rgh, Initial residual = 0.00628182, Final residual = 3.52281e-05, No Iterations 2
time step continuity errors : sum local = 0.00276699, global = -9.06724e-18, cumulative = 6.7803e-17
rho min/max : 1.13555 1.2131
DILUPBiCGStab:  Solving for omega, Initial residual = 9.80083e-05, Final residual = 3.57346e-06, No Iterations 1
DILUPBiCGStab:  Solving for k, Initial residual = 0.0165248, Final residual = 0.000478248, No Iterations 1
ExecutionTime = 21.79 s  ClockTime = 24 s

Time = 86

DILUPBiCGStab:  Solving for h, Initial residual = 0.00234279, Final residual = 1.05527e-05, No Iterations 1
GAMG:  Solving for p_rgh, Initial residual = 0.0061493, Final residual = 3.4668e-05, No Iterations 2
time step continuity errors : sum local = 0.0027084, global = 1.24137e-17, cumulative = 8.02167e-17
rho min/max : 1.13557 1.21312
DILUPBiCGStab:  Solving for omega, Initial residual = 9.57843e-05, Final residual = 3.65408e-06, No Iterations 1
DILUPBiCGStab:  Solving for k, Initial residual = 0.0164866, Final residual = 0.00048126, No Iterations 1
ExecutionTime = 21.97 s  ClockTime = 24 s

Time = 87

DILUPBiCGStab:  Solving for h, Initial residual = 0.00232462, Final residual = 1.0441e-05, No Iterations 1
GAMG:  Solving for p_rgh, Initial residual = 0.0061026, Final residual = 3.38222e-05, No Iterations 2
time step continuity errors : sum local = 0.00264456, global = -8.84973e-18, cumulative = 7.1367e-17
rho min/max : 1.13559 1.21314
DILUPBiCGStab:  Solving for omega, Initial residual = 9.60844e-05, Final residual = 3.47856e-06, No Iterations 1
DILUPBiCGStab:  Solving for k, Initial residual = 0.016412, Final residual = 0.000480253, No Iterations 1
ExecutionTime = 22.14 s  ClockTime = 24 s

Time = 88

DILUPBiCGStab:  Solving for h, Initial residual = 0.00230691, Final residual = 1.02958e-05, No Iterations 1
GAMG:  Solving for p_rgh, Initial residual = 0.0059483, Final residual = 3.27342e-05, No Iterations 2
time step continuity errors : sum local = 0.00254086, global = -6.76417e-18, cumulative = 6.46028e-17
rho min/max : 1.13561 1.21316
DILUPBiCGStab:  Solving for omega, Initial residual = 9.42773e-05, Final residual = 3.49102e-06, No Iterations 1
DILUPBiCGStab:  Solving for k, Initial residual = 0.0162795, Final residual = 0.000480115, No Iterations 1
ExecutionTime = 22.3 s  ClockTime = 24 s

Time = 89

DILUPBiCGStab:  Solving for h, Initial residual = 0.00229126, Final residual = 1.0274e-05, No Iterations 1
GAMG:  Solving for p_rgh, Initial residual = 0.00585815, Final residual = 3.12495e-05, No Iterations 2
time step continuity errors : sum local = 0.00241752, global = 9.59201e-18, cumulative = 7.41949e-17
rho min/max : 1.13562 1.21318
DILUPBiCGStab:  Solving for omega, Initial residual = 9.37377e-05, Final residual = 3.34188e-06, No Iterations 1
DILUPBiCGStab:  Solving for k, Initial residual = 0.0161392, Final residual = 0.000475233, No Iterations 1
ExecutionTime = 22.47 s  ClockTime = 25 s

Time = 90

DILUPBiCGStab:  Solving for h, Initial residual = 0.00227262, Final residual = 1.01518e-05, No Iterations 1
GAMG:  Solving for p_rgh, Initial residual = 0.00578688, Final residual = 2.92604e-05, No Iterations 2
time step continuity errors : sum local = 0.00224648, global = -1.40507e-17, cumulative = 6.01442e-17
rho min/max : 1.13564 1.2132
DILUPBiCGStab:  Solving for omega, Initial residual = 9.19221e-05, Final residual = 3.32271e-06, No Iterations 1
DILUPBiCGStab:  Solving for k, Initial residual = 0.0159599, Final residual = 0.000469963, No Iterations 1
ExecutionTime = 22.66 s  ClockTime = 25 s

Time = 91

DILUPBiCGStab:  Solving for h, Initial residual = 0.00225296, Final residual = 1.00125e-05, No Iterations 1
GAMG:  Solving for p_rgh, Initial residual = 0.00579689, Final residual = 2.73308e-05, No Iterations 2
time step continuity errors : sum local = 0.00208804, global = 3.82869e-17, cumulative = 9.84311e-17
rho min/max : 1.13566 1.21321
DILUPBiCGStab:  Solving for omega, Initial residual = 9.04469e-05, Final residual = 3.17913e-06, No Iterations 1
DILUPBiCGStab:  Solving for k, Initial residual = 0.0157467, Final residual = 0.000461603, No Iterations 1
ExecutionTime = 22.83 s  ClockTime = 25 s

Time = 92

DILUPBiCGStab:  Solving for h, Initial residual = 0.00223721, Final residual = 9.91878e-06, No Iterations 1
GAMG:  Solving for p_rgh, Initial residual = 0.00569834, Final residual = 2.61873e-05, No Iterations 2
time step continuity errors : sum local = 0.0019904, global = 1.12451e-18, cumulative = 9.95556e-17
rho min/max : 1.13568 1.21323
DILUPBiCGStab:  Solving for omega, Initial residual = 8.84349e-05, Final residual = 3.1569e-06, No Iterations 1
DILUPBiCGStab:  Solving for k, Initial residual = 0.0155399, Final residual = 0.000453589, No Iterations 1
ExecutionTime = 23 s  ClockTime = 25 s

Time = 93

DILUPBiCGStab:  Solving for h, Initial residual = 0.00221979, Final residual = 9.78592e-06, No Iterations 1
GAMG:  Solving for p_rgh, Initial residual = 0.00562345, Final residual = 2.55052e-05, No Iterations 2
time step continuity errors : sum local = 0.00191786, global = -9.6338e-18, cumulative = 8.99218e-17
rho min/max : 1.1357 1.21325
DILUPBiCGStab:  Solving for omega, Initial residual = 8.63619e-05, Final residual = 3.09648e-06, No Iterations 1
DILUPBiCGStab:  Solving for k, Initial residual = 0.015324, Final residual = 0.000447388, No Iterations 1
ExecutionTime = 23.17 s  ClockTime = 25 s

Time = 94

DILUPBiCGStab:  Solving for h, Initial residual = 0.00220207, Final residual = 9.72445e-06, No Iterations 1
GAMG:  Solving for p_rgh, Initial residual = 0.00558422, Final residual = 2.46012e-05, No Iterations 2
time step continuity errors : sum local = 0.00184325, global = 1.45017e-17, cumulative = 1.04424e-16
rho min/max : 1.13571 1.21327
DILUPBiCGStab:  Solving for omega, Initial residual = 8.50365e-05, Final residual = 3.10153e-06, No Iterations 1
DILUPBiCGStab:  Solving for k, Initial residual = 0.0151192, Final residual = 0.000439846, No Iterations 1
ExecutionTime = 23.34 s  ClockTime = 26 s

Time = 95

DILUPBiCGStab:  Solving for h, Initial residual = 0.00218621, Final residual = 9.60024e-06, No Iterations 1
GAMG:  Solving for p_rgh, Initial residual = 0.00556941, Final residual = 2.39673e-05, No Iterations 2
time step continuity errors : sum local = 0.00180923, global = -1.29624e-17, cumulative = 9.14611e-17
rho min/max : 1.13573 1.21329
DILUPBiCGStab:  Solving for omega, Initial residual = 8.37434e-05, Final residual = 3.03609e-06, No Iterations 1
DILUPBiCGStab:  Solving for k, Initial residual = 0.0149101, Final residual = 0.000430271, No Iterations 1
ExecutionTime = 23.53 s  ClockTime = 26 s

Time = 96

DILUPBiCGStab:  Solving for h, Initial residual = 0.00217058, Final residual = 9.57925e-06, No Iterations 1
GAMG:  Solving for p_rgh, Initial residual = 0.00556931, Final residual = 2.5684e-05, No Iterations 2
time step continuity errors : sum local = 0.00192795, global = -2.19738e-17, cumulative = 6.94873e-17
rho min/max : 1.13575 1.21331
DILUPBiCGStab:  Solving for omega, Initial residual = 8.27318e-05, Final residual = 3.02432e-06, No Iterations 1
DILUPBiCGStab:  Solving for k, Initial residual = 0.0146901, Final residual = 0.000423619, No Iterations 1
ExecutionTime = 23.72 s  ClockTime = 26 s

Time = 97

DILUPBiCGStab:  Solving for h, Initial residual = 0.00215378, Final residual = 9.51561e-06, No Iterations 1
GAMG:  Solving for p_rgh, Initial residual = 0.00547156, Final residual = 2.81002e-05, No Iterations 2
time step continuity errors : sum local = 0.00209605, global = 8.39194e-18, cumulative = 7.78793e-17
rho min/max : 1.13577 1.21333
DILUPBiCGStab:  Solving for omega, Initial residual = 8.19122e-05, Final residual = 2.97161e-06, No Iterations 1
DILUPBiCGStab:  Solving for k, Initial residual = 0.0144732, Final residual = 0.000417765, No Iterations 1
ExecutionTime = 23.89 s  ClockTime = 26 s

Time = 98

DILUPBiCGStab:  Solving for h, Initial residual = 0.00213782, Final residual = 9.45595e-06, No Iterations 1
GAMG:  Solving for p_rgh, Initial residual = 0.00538452, Final residual = 3.06197e-05, No Iterations 2
time step continuity errors : sum local = 0.00227774, global = 4.96508e-19, cumulative = 7.83758e-17
rho min/max : 1.13578 1.21335
DILUPBiCGStab:  Solving for omega, Initial residual = 8.07174e-05, Final residual = 2.94063e-06, No Iterations 1
DILUPBiCGStab:  Solving for k, Initial residual = 0.0142565, Final residual = 0.000409306, No Iterations 1
ExecutionTime = 24.06 s  ClockTime = 26 s

Time = 99

DILUPBiCGStab:  Solving for h, Initial residual = 0.00212121, Final residual = 9.38825e-06, No Iterations 1
GAMG:  Solving for p_rgh, Initial residual = 0.00536235, Final residual = 3.10977e-05, No Iterations 2
time step continuity errors : sum local = 0.0023235, global = -9.74932e-18, cumulative = 6.86265e-17
rho min/max : 1.1358 1.21336
DILUPBiCGStab:  Solving for omega, Initial residual = 7.98985e-05, Final residual = 2.87699e-06, No Iterations 1
DILUPBiCGStab:  Solving for k, Initial residual = 0.0140042, Final residual = 0.000399511, No Iterations 1
ExecutionTime = 24.24 s  ClockTime = 26 s

Time = 100

DILUPBiCGStab:  Solving for h, Initial residual = 0.00210755, Final residual = 9.31924e-06, No Iterations 1
GAMG:  Solving for p_rgh, Initial residual = 0.00532125, Final residual = 3.33322e-05, No Iterations 2
time step continuity errors : sum local = 0.00245586, global = 1.52981e-17, cumulative = 8.39245e-17
rho min/max : 1.13582 1.21338
DILUPBiCGStab:  Solving for omega, Initial residual = 7.93268e-05, Final residual = 2.95009e-06, No Iterations 1
DILUPBiCGStab:  Solving for k, Initial residual = 0.0137451, Final residual = 0.00039205, No Iterations 1
ExecutionTime = 24.79 s  ClockTime = 27 s

Time = 101

DILUPBiCGStab:  Solving for h, Initial residual = 0.00209242, Final residual = 9.26535e-06, No Iterations 1
GAMG:  Solving for p_rgh, Initial residual = 0.00530424, Final residual = 3.19508e-05, No Iterations 2
time step continuity errors : sum local = 0.00238151, global = 2.08677e-17, cumulative = 1.04792e-16
rho min/max : 1.13583 1.2134
DILUPBiCGStab:  Solving for omega, Initial residual = 7.85345e-05, Final residual = 2.94344e-06, No Iterations 1
DILUPBiCGStab:  Solving for k, Initial residual = 0.0135131, Final residual = 0.000384546, No Iterations 1
ExecutionTime = 24.94 s  ClockTime = 27 s

Time = 102

DILUPBiCGStab:  Solving for h, Initial residual = 0.00208051, Final residual = 9.18992e-06, No Iterations 1
GAMG:  Solving for p_rgh, Initial residual = 0.00530532, Final residual = 3.2467e-05, No Iterations 2
time step continuity errors : sum local = 0.00237346, global = -2.74776e-17, cumulative = 7.73146e-17
rho min/max : 1.13585 1.21342
DILUPBiCGStab:  Solving for omega, Initial residual = 7.87455e-05, Final residual = 3.07492e-06, No Iterations 1
DILUPBiCGStab:  Solving for k, Initial residual = 0.0132611, Final residual = 0.000375788, No Iterations 1
ExecutionTime = 25.11 s  ClockTime = 27 s

Time = 103

DILUPBiCGStab:  Solving for h, Initial residual = 0.00206702, Final residual = 9.14432e-06, No Iterations 1
GAMG:  Solving for p_rgh, Initial residual = 0.00526653, Final residual = 3.0263e-05, No Iterations 2
time step continuity errors : sum local = 0.0022382, global = -9.15818e-18, cumulative = 6.81564e-17
rho min/max : 1.13586 1.21343
DILUPBiCGStab:  Solving for omega, Initial residual = 7.84223e-05, Final residual = 3.07443e-06, No Iterations 1
DILUPBiCGStab:  Solving for k, Initial residual = 0.0130052, Final residual = 0.000363493, No Iterations 1
ExecutionTime = 25.3 s  ClockTime = 28 s

Time = 104

DILUPBiCGStab:  Solving for h, Initial residual = 0.00205468, Final residual = 9.13113e-06, No Iterations 1
GAMG:  Solving for p_rgh, Initial residual = 0.00520992, Final residual = 2.98867e-05, No Iterations 2
time step continuity errors : sum local = 0.00218691, global = 8.71452e-18, cumulative = 7.68709e-17
rho min/max : 1.13588 1.21345
DILUPBiCGStab:  Solving for omega, Initial residual = 7.84131e-05, Final residual = 3.21518e-06, No Iterations 1
DILUPBiCGStab:  Solving for k, Initial residual = 0.012781, Final residual = 0.000358869, No Iterations 1
ExecutionTime = 25.47 s  ClockTime = 28 s

Time = 105

DILUPBiCGStab:  Solving for h, Initial residual = 0.002042, Final residual = 9.07789e-06, No Iterations 1
GAMG:  Solving for p_rgh, Initial residual = 0.00517177, Final residual = 2.88171e-05, No Iterations 2
time step continuity errors : sum local = 0.00210709, global = -3.03553e-19, cumulative = 7.65674e-17
rho min/max : 1.1359 1.21347
DILUPBiCGStab:  Solving for omega, Initial residual = 7.75375e-05, Final residual = 3.18071e-06, No Iterations 1
DILUPBiCGStab:  Solving for k, Initial residual = 0.0125799, Final residual = 0.000350092, No Iterations 1
ExecutionTime = 25.66 s  ClockTime = 28 s

Time = 106

DILUPBiCGStab:  Solving for h, Initial residual = 0.00202972, Final residual = 9.0502e-06, No Iterations 1
GAMG:  Solving for p_rgh, Initial residual = 0.00514102, Final residual = 2.76787e-05, No Iterations 2
time step continuity errors : sum local = 0.00202929, global = 6.28734e-18, cumulative = 8.28547e-17
rho min/max : 1.13591 1.21348
DILUPBiCGStab:  Solving for omega, Initial residual = 7.6923e-05, Final residual = 3.29459e-06, No Iterations 1
DILUPBiCGStab:  Solving for k, Initial residual = 0.0123557, Final residual = 0.00034595, No Iterations 1
ExecutionTime = 25.83 s  ClockTime = 28 s

Time = 107

DILUPBiCGStab:  Solving for h, Initial residual = 0.00201826, Final residual = 8.96638e-06, No Iterations 1
GAMG:  Solving for p_rgh, Initial residual = 0.0051586, Final residual = 2.70889e-05, No Iterations 2
time step continuity errors : sum local = 0.0019713, global = 8.52651e-18, cumulative = 9.13812e-17
rho min/max : 1.13593 1.2135
DILUPBiCGStab:  Solving for omega, Initial residual = 7.69511e-05, Final residual = 3.23552e-06, No Iterations 1
DILUPBiCGStab:  Solving for k, Initial residual = 0.0121385, Final residual = 0.000337981, No Iterations 1
ExecutionTime = 26 s  ClockTime = 28 s

Time = 108

DILUPBiCGStab:  Solving for h, Initial residual = 0.00200691, Final residual = 8.90251e-06, No Iterations 1
GAMG:  Solving for p_rgh, Initial residual = 0.005079, Final residual = 2.60377e-05, No Iterations 2
time step continuity errors : sum local = 0.00189736, global = -3.20008e-17, cumulative = 5.93804e-17
rho min/max : 1.13594 1.21352
DILUPBiCGStab:  Solving for omega, Initial residual = 7.6899e-05, Final residual = 3.31767e-06, No Iterations 1
DILUPBiCGStab:  Solving for k, Initial residual = 0.0119304, Final residual = 0.000330807, No Iterations 1
ExecutionTime = 26.19 s  ClockTime = 28 s

Time = 109

DILUPBiCGStab:  Solving for h, Initial residual = 0.00199494, Final residual = 8.84059e-06, No Iterations 1
GAMG:  Solving for p_rgh, Initial residual = 0.00506229, Final residual = 2.54576e-05, No Iterations 2
time step continuity errors : sum local = 0.00185038, global = -2.70567e-17, cumulative = 3.23237e-17
rho min/max : 1.13596 1.21353
DILUPBiCGStab:  Solving for omega, Initial residual = 7.63295e-05, Final residual = 3.258e-06, No Iterations 1
DILUPBiCGStab:  Solving for k, Initial residual = 0.0117365, Final residual = 0.000326375, No Iterations 1
ExecutionTime = 26.36 s  ClockTime = 29 s

Time = 110

DILUPBiCGStab:  Solving for h, Initial residual = 0.00198374, Final residual = 8.77972e-06, No Iterations 1
GAMG:  Solving for p_rgh, Initial residual = 0.00502448, Final residual = 2.5129e-05, No Iterations 2
time step continuity errors : sum local = 0.00182478, global = 1.38958e-17, cumulative = 4.62195e-17
rho min/max : 1.13597 1.21355
DILUPBiCGStab:  Solving for omega, Initial residual = 7.64477e-05, Final residual = 3.35336e-06, No Iterations 1
DILUPBiCGStab:  Solving for k, Initial residual = 0.0115544, Final residual = 0.000319533, No Iterations 1
ExecutionTime = 26.53 s  ClockTime = 29 s

Time = 111

DILUPBiCGStab:  Solving for h, Initial residual = 0.00197183, Final residual = 8.74363e-06, No Iterations 1
GAMG:  Solving for p_rgh, Initial residual = 0.00499323, Final residual = 2.53437e-05, No Iterations 2
time step continuity errors : sum local = 0.00183981, global = -2.17384e-17, cumulative = 2.44811e-17
rho min/max : 1.13599 1.21356
DILUPBiCGStab:  Solving for omega, Initial residual = 7.70429e-05, Final residual = 3.33973e-06, No Iterations 1
DILUPBiCGStab:  Solving for k, Initial residual = 0.011364, Final residual = 0.00031322, No Iterations 1
ExecutionTime = 26.7 s  ClockTime = 29 s

Time = 112

DILUPBiCGStab:  Solving for h, Initial residual = 0.0019616, Final residual = 8.70092e-06, No Iterations 1
GAMG:  Solving for p_rgh, Initial residual = 0.00493567, Final residual = 2.5881e-05, No Iterations 2
time step continuity errors : sum local = 0.00187706, global = -2.86415e-17, cumulative = -4.1604e-18
rho min/max : 1.136 1.21358
DILUPBiCGStab:  Solving for omega, Initial residual = 7.60669e-05, Final residual = 3.45486e-06, No Iterations 1
DILUPBiCGStab:  Solving for k, Initial residual = 0.0111918, Final residual = 0.000306644, No Iterations 1
ExecutionTime = 26.86 s  ClockTime = 29 s

Time = 113

DILUPBiCGStab:  Solving for h, Initial residual = 0.00195139, Final residual = 8.6639e-06, No Iterations 1
GAMG:  Solving for p_rgh, Initial residual = 0.00490307, Final residual = 2.66152e-05, No Iterations 2
time step continuity errors : sum local = 0.00192909, global = 7.69266e-18, cumulative = 3.53226e-18
rho min/max : 1.13602 1.21359
DILUPBiCGStab:  Solving for omega, Initial residual = 7.62323e-05, Final residual = 3.37224e-06, No Iterations 1
DILUPBiCGStab:  Solving for k, Initial residual = 0.0110387, Final residual = 0.000303503, No Iterations 1
ExecutionTime = 27.03 s  ClockTime = 29 s

Time = 114

DILUPBiCGStab:  Solving for h, Initial residual = 0.00194032, Final residual = 8.58823e-06, No Iterations 1
GAMG:  Solving for p_rgh, Initial residual = 0.00484871, Final residual = 2.73592e-05, No Iterations 2
time step continuity errors : sum local = 0.00197935, global = -1.3795e-17, cumulative = -1.02628e-17
rho min/max : 1.13603 1.21361
DILUPBiCGStab:  Solving for omega, Initial residual = 7.58504e-05, Final residual = 3.50334e-06, No Iterations 1
DILUPBiCGStab:  Solving for k, Initial residual = 0.0108819, Final residual = 0.000298086, No Iterations 1
ExecutionTime = 27.2 s  ClockTime = 29 s

Time = 115

DILUPBiCGStab:  Solving for h, Initial residual = 0.00193084, Final residual = 8.55282e-06, No Iterations 1
GAMG:  Solving for p_rgh, Initial residual = 0.00483447, Final residual = 2.79012e-05, No Iterations 2
time step continuity errors : sum local = 0.00201092, global = -1.0982e-17, cumulative = -2.12448e-17
rho min/max : 1.13605 1.21363
DILUPBiCGStab:  Solving for omega, Initial residual = 7.57323e-05, Final residual = 3.3346e-06, No Iterations 1
DILUPBiCGStab:  Solving for k, Initial residual = 0.0107447, Final residual = 0.000295025, No Iterations 1
ExecutionTime = 27.37 s  ClockTime = 30 s

Time = 116

DILUPBiCGStab:  Solving for h, Initial residual = 0.00192005, Final residual = 8.48025e-06, No Iterations 1
GAMG:  Solving for p_rgh, Initial residual = 0.00479032, Final residual = 2.81417e-05, No Iterations 2
time step continuity errors : sum local = 0.0020268, global = 3.47425e-18, cumulative = -1.77705e-17
rho min/max : 1.13606 1.21364
DILUPBiCGStab:  Solving for omega, Initial residual = 7.63511e-05, Final residual = 3.45534e-06, No Iterations 1
DILUPBiCGStab:  Solving for k, Initial residual = 0.0106042, Final residual = 0.000290856, No Iterations 1
ExecutionTime = 27.54 s  ClockTime = 30 s

Time = 117

DILUPBiCGStab:  Solving for h, Initial residual = 0.00191018, Final residual = 8.46217e-06, No Iterations 1
GAMG:  Solving for p_rgh, Initial residual = 0.00476098, Final residual = 2.81369e-05, No Iterations 2
time step continuity errors : sum local = 0.00202828, global = -2.37017e-17, cumulative = -4.14722e-17
rho min/max : 1.13607 1.21366
DILUPBiCGStab:  Solving for omega, Initial residual = 7.61374e-05, Final residual = 3.37775e-06, No Iterations 1
DILUPBiCGStab:  Solving for k, Initial residual = 0.0104731, Final residual = 0.000284649, No Iterations 1
ExecutionTime = 27.7 s  ClockTime = 30 s

Time = 118

DILUPBiCGStab:  Solving for h, Initial residual = 0.00190152, Final residual = 8.40994e-06, No Iterations 1
GAMG:  Solving for p_rgh, Initial residual = 0.00470732, Final residual = 2.79544e-05, No Iterations 2
time step continuity errors : sum local = 0.00202449, global = 2.91263e-19, cumulative = -4.11809e-17
rho min/max : 1.13609 1.21367
DILUPBiCGStab:  Solving for omega, Initial residual = 7.59024e-05, Final residual = 3.51839e-06, No Iterations 1
DILUPBiCGStab:  Solving for k, Initial residual = 0.0103291, Final residual = 0.000281425, No Iterations 1
ExecutionTime = 27.87 s  ClockTime = 30 s

Time = 119

DILUPBiCGStab:  Solving for h, Initial residual = 0.00189256, Final residual = 8.39208e-06, No Iterations 1
GAMG:  Solving for p_rgh, Initial residual = 0.00465812, Final residual = 2.76457e-05, No Iterations 2
time step continuity errors : sum local = 0.0020093, global = 9.6043e-18, cumulative = -3.15766e-17
rho min/max : 1.1361 1.21369
DILUPBiCGStab:  Solving for omega, Initial residual = 7.64102e-05, Final residual = 3.465e-06, No Iterations 1
DILUPBiCGStab:  Solving for k, Initial residual = 0.0102133, Final residual = 0.000280423, No Iterations 1
ExecutionTime = 28.06 s  ClockTime = 30 s

Time = 120

DILUPBiCGStab:  Solving for h, Initial residual = 0.00188416, Final residual = 8.31271e-06, No Iterations 1
GAMG:  Solving for p_rgh, Initial residual = 0.00462389, Final residual = 2.73692e-05, No Iterations 2
time step continuity errors : sum local = 0.00198782, global = -5.85353e-18, cumulative = -3.74302e-17
rho min/max : 1.13612 1.2137
DILUPBiCGStab:  Solving for omega, Initial residual = 7.75183e-05, Final residual = 3.51379e-06, No Iterations 1
DILUPBiCGStab:  Solving for k, Initial residual = 0.0100941, Final residual = 0.00027607, No Iterations 1
ExecutionTime = 28.24 s  ClockTime = 30 s

Time = 121

DILUPBiCGStab:  Solving for h, Initial residual = 0.00187372, Final residual = 8.26379e-06, No Iterations 1
GAMG:  Solving for p_rgh, Initial residual = 0.00459216, Final residual = 2.6918e-05, No Iterations 2
time step continuity errors : sum local = 0.00195677, global = 3.56004e-17, cumulative = -1.82972e-18
rho min/max : 1.13613 1.21371
DILUPBiCGStab:  Solving for omega, Initial residual = 7.76765e-05, Final residual = 3.48498e-06, No Iterations 1
DILUPBiCGStab:  Solving for k, Initial residual = 0.00998217, Final residual = 0.00027128, No Iterations 1
ExecutionTime = 28.41 s  ClockTime = 31 s

Time = 122

DILUPBiCGStab:  Solving for h, Initial residual = 0.00186634, Final residual = 8.21251e-06, No Iterations 1
GAMG:  Solving for p_rgh, Initial residual = 0.00456936, Final residual = 2.66079e-05, No Iterations 2
time step continuity errors : sum local = 0.00192447, global = 1.67261e-17, cumulative = 1.48964e-17
rho min/max : 1.13614 1.21373
DILUPBiCGStab:  Solving for omega, Initial residual = 7.89285e-05, Final residual = 3.61278e-06, No Iterations 1
DILUPBiCGStab:  Solving for k, Initial residual = 0.00986897, Final residual = 0.000266213, No Iterations 1
ExecutionTime = 28.58 s  ClockTime = 31 s

Time = 123

DILUPBiCGStab:  Solving for h, Initial residual = 0.00185728, Final residual = 8.20962e-06, No Iterations 1
GAMG:  Solving for p_rgh, Initial residual = 0.00452531, Final residual = 2.60436e-05, No Iterations 2
time step continuity errors : sum local = 0.00188774, global = 3.3231e-18, cumulative = 1.82195e-17
rho min/max : 1.13616 1.21374
DILUPBiCGStab:  Solving for omega, Initial residual = 8.03709e-05, Final residual = 3.57491e-06, No Iterations 1
DILUPBiCGStab:  Solving for k, Initial residual = 0.00977579, Final residual = 0.000263378, No Iterations 1
ExecutionTime = 28.74 s  ClockTime = 31 s

Time = 124

DILUPBiCGStab:  Solving for h, Initial residual = 0.00184862, Final residual = 8.11107e-06, No Iterations 1
GAMG:  Solving for p_rgh, Initial residual = 0.00447799, Final residual = 2.53592e-05, No Iterations 2
time step continuity errors : sum local = 0.00183963, global = -1.88031e-18, cumulative = 1.63392e-17
rho min/max : 1.13617 1.21376
DILUPBiCGStab:  Solving for omega, Initial residual = 8.00918e-05, Final residual = 3.6452e-06, No Iterations 1
DILUPBiCGStab:  Solving for k, Initial residual = 0.00967083, Final residual = 0.000262408, No Iterations 1
ExecutionTime = 28.91 s  ClockTime = 31 s

Time = 125

DILUPBiCGStab:  Solving for h, Initial residual = 0.00183866, Final residual = 8.10325e-06, No Iterations 1
GAMG:  Solving for p_rgh, Initial residual = 0.00441905, Final residual = 2.47055e-05, No Iterations 2
time step continuity errors : sum local = 0.00179203, global = 2.03565e-17, cumulative = 3.66956e-17
rho min/max : 1.13618 1.21377
DILUPBiCGStab:  Solving for omega, Initial residual = 8.14054e-05, Final residual = 3.68819e-06, No Iterations 1
DILUPBiCGStab:  Solving for k, Initial residual = 0.00958436, Final residual = 0.000259983, No Iterations 1
ExecutionTime = 29.08 s  ClockTime = 31 s

Time = 126

DILUPBiCGStab:  Solving for h, Initial residual = 0.00183034, Final residual = 8.05005e-06, No Iterations 1
GAMG:  Solving for p_rgh, Initial residual = 0.00440458, Final residual = 2.40729e-05, No Iterations 2
time step continuity errors : sum local = 0.00174663, global = -6.35125e-18, cumulative = 3.03444e-17
rho min/max : 1.1362 1.21378
DILUPBiCGStab:  Solving for omega, Initial residual = 8.23908e-05, Final residual = 3.76363e-06, No Iterations 1
DILUPBiCGStab:  Solving for k, Initial residual = 0.0094841, Final residual = 0.000256786, No Iterations 1
ExecutionTime = 29.25 s  ClockTime = 31 s

Time = 127

[...]

Time = 969

DILUPBiCGStab:  Solving for h, Initial residual = 0.000477107, Final residual = 1.3801e-06, No Iterations 1
GAMG:  Solving for p_rgh, Initial residual = 0.00073642, Final residual = 2.0325e-06, No Iterations 2
time step continuity errors : sum local = 0.000222235, global = -7.34117e-18, cumulative = -5.60866e-16
rho min/max : 1.1413 1.21924
DILUPBiCGStab:  Solving for omega, Initial residual = 1.39833e-05, Final residual = 5.61549e-07, No Iterations 1
DILUPBiCGStab:  Solving for k, Initial residual = 0.000407844, Final residual = 7.84364e-06, No Iterations 1
ExecutionTime = 215.13 s  ClockTime = 218 s

Time = 970

DILUPBiCGStab:  Solving for h, Initial residual = 0.000477332, Final residual = 1.38321e-06, No Iterations 1
GAMG:  Solving for p_rgh, Initial residual = 0.000740272, Final residual = 2.04153e-06, No Iterations 2
time step continuity errors : sum local = 0.000222936, global = 5.04303e-18, cumulative = -5.55823e-16
rho min/max : 1.14131 1.21924
DILUPBiCGStab:  Solving for omega, Initial residual = 1.39053e-05, Final residual = 5.57664e-07, No Iterations 1
DILUPBiCGStab:  Solving for k, Initial residual = 0.000406362, Final residual = 7.84132e-06, No Iterations 1
ExecutionTime = 215.34 s  ClockTime = 218 s

Time = 971

DILUPBiCGStab:  Solving for h, Initial residual = 0.000477344, Final residual = 1.38329e-06, No Iterations 1
GAMG:  Solving for p_rgh, Initial residual = 0.000742299, Final residual = 2.04406e-06, No Iterations 2
time step continuity errors : sum local = 0.000223452, global = -4.09182e-18, cumulative = -5.59915e-16
rho min/max : 1.14131 1.21925
DILUPBiCGStab:  Solving for omega, Initial residual = 1.41352e-05, Final residual = 5.63856e-07, No Iterations 1
DILUPBiCGStab:  Solving for k, Initial residual = 0.000405055, Final residual = 7.872e-06, No Iterations 1
ExecutionTime = 215.61 s  ClockTime = 219 s

Time = 972

DILUPBiCGStab:  Solving for h, Initial residual = 0.000477342, Final residual = 1.37824e-06, No Iterations 1
GAMG:  Solving for p_rgh, Initial residual = 0.000740365, Final residual = 2.04762e-06, No Iterations 2
time step continuity errors : sum local = 0.000223729, global = -3.42572e-17, cumulative = -5.94172e-16
rho min/max : 1.14132 1.21925
DILUPBiCGStab:  Solving for omega, Initial residual = 1.40878e-05, Final residual = 5.63834e-07, No Iterations 1
DILUPBiCGStab:  Solving for k, Initial residual = 0.000403599, Final residual = 7.82949e-06, No Iterations 1
ExecutionTime = 215.86 s  ClockTime = 219 s

Time = 973

DILUPBiCGStab:  Solving for h, Initial residual = 0.000477326, Final residual = 1.37855e-06, No Iterations 1
GAMG:  Solving for p_rgh, Initial residual = 0.000744065, Final residual = 2.04761e-06, No Iterations 2
time step continuity errors : sum local = 0.000223758, global = 3.43002e-18, cumulative = -5.90742e-16
rho min/max : 1.14132 1.21926
DILUPBiCGStab:  Solving for omega, Initial residual = 1.42212e-05, Final residual = 5.64426e-07, No Iterations 1
DILUPBiCGStab:  Solving for k, Initial residual = 0.000402395, Final residual = 7.85239e-06, No Iterations 1
ExecutionTime = 216.1 s  ClockTime = 219 s

Time = 974

DILUPBiCGStab:  Solving for h, Initial residual = 0.000477224, Final residual = 1.38075e-06, No Iterations 1
GAMG:  Solving for p_rgh, Initial residual = 0.000743759, Final residual = 2.05004e-06, No Iterations 2
time step continuity errors : sum local = 0.000224189, global = -2.71882e-17, cumulative = -6.17931e-16
rho min/max : 1.14133 1.21926
DILUPBiCGStab:  Solving for omega, Initial residual = 1.41494e-05, Final residual = 5.6081e-07, No Iterations 1
DILUPBiCGStab:  Solving for k, Initial residual = 0.000401146, Final residual = 7.83532e-06, No Iterations 1
ExecutionTime = 216.32 s  ClockTime = 219 s

Time = 975

DILUPBiCGStab:  Solving for h, Initial residual = 0.000477244, Final residual = 1.38519e-06, No Iterations 1
GAMG:  Solving for p_rgh, Initial residual = 0.000747044, Final residual = 2.03196e-06, No Iterations 2
time step continuity errors : sum local = 0.000222281, global = 1.1299e-17, cumulative = -6.06632e-16
rho min/max : 1.14133 1.21927
DILUPBiCGStab:  Solving for omega, Initial residual = 1.41368e-05, Final residual = 5.63272e-07, No Iterations 1
DILUPBiCGStab:  Solving for k, Initial residual = 0.000400289, Final residual = 7.93631e-06, No Iterations 1
ExecutionTime = 216.57 s  ClockTime = 220 s

Time = 976

DILUPBiCGStab:  Solving for h, Initial residual = 0.000477299, Final residual = 1.38848e-06, No Iterations 1
GAMG:  Solving for p_rgh, Initial residual = 0.000748147, Final residual = 2.01274e-06, No Iterations 2
time step continuity errors : sum local = 0.000220042, global = -6.87602e-18, cumulative = -6.13508e-16
rho min/max : 1.14134 1.21927
DILUPBiCGStab:  Solving for omega, Initial residual = 1.415e-05, Final residual = 5.61932e-07, No Iterations 1
DILUPBiCGStab:  Solving for k, Initial residual = 0.000398995, Final residual = 7.91415e-06, No Iterations 1
ExecutionTime = 216.82 s  ClockTime = 220 s

Time = 977

DILUPBiCGStab:  Solving for h, Initial residual = 0.00047727, Final residual = 1.39099e-06, No Iterations 1
GAMG:  Solving for p_rgh, Initial residual = 0.000747818, Final residual = 1.99587e-06, No Iterations 2
time step continuity errors : sum local = 0.000218342, global = 7.71971e-18, cumulative = -6.05788e-16
rho min/max : 1.14134 1.21928
DILUPBiCGStab:  Solving for omega, Initial residual = 1.40953e-05, Final residual = 5.6822e-07, No Iterations 1
DILUPBiCGStab:  Solving for k, Initial residual = 0.00039782, Final residual = 7.98418e-06, No Iterations 1
ExecutionTime = 217.08 s  ClockTime = 220 s

Time = 978

DILUPBiCGStab:  Solving for h, Initial residual = 0.000477397, Final residual = 1.40051e-06, No Iterations 1
GAMG:  Solving for p_rgh, Initial residual = 0.000746797, Final residual = 1.99232e-06, No Iterations 2
time step continuity errors : sum local = 0.0002179, global = 9.3198e-18, cumulative = -5.96468e-16
rho min/max : 1.14134 1.21928
DILUPBiCGStab:  Solving for omega, Initial residual = 1.41042e-05, Final residual = 5.62634e-07, No Iterations 1
DILUPBiCGStab:  Solving for k, Initial residual = 0.000396085, Final residual = 7.86429e-06, No Iterations 1
ExecutionTime = 217.3 s  ClockTime = 220 s

Time = 979

DILUPBiCGStab:  Solving for h, Initial residual = 0.000477301, Final residual = 1.40995e-06, No Iterations 1
GAMG:  Solving for p_rgh, Initial residual = 0.000748398, Final residual = 1.99477e-06, No Iterations 2
time step continuity errors : sum local = 0.000218154, global = -2.04025e-17, cumulative = -6.16871e-16
rho min/max : 1.14135 1.21929
DILUPBiCGStab:  Solving for omega, Initial residual = 1.40096e-05, Final residual = 5.52398e-07, No Iterations 1
DILUPBiCGStab:  Solving for k, Initial residual = 0.000395439, Final residual = 7.96465e-06, No Iterations 1
ExecutionTime = 217.54 s  ClockTime = 221 s

Time = 980

DILUPBiCGStab:  Solving for h, Initial residual = 0.000477404, Final residual = 1.41738e-06, No Iterations 1
GAMG:  Solving for p_rgh, Initial residual = 0.000749838, Final residual = 1.9957e-06, No Iterations 2
time step continuity errors : sum local = 0.000218417, global = -4.85936e-17, cumulative = -6.65464e-16
rho min/max : 1.14135 1.2193
DILUPBiCGStab:  Solving for omega, Initial residual = 1.401e-05, Final residual = 5.48549e-07, No Iterations 1
DILUPBiCGStab:  Solving for k, Initial residual = 0.000393638, Final residual = 7.84354e-06, No Iterations 1
ExecutionTime = 217.77 s  ClockTime = 221 s

Time = 981

DILUPBiCGStab:  Solving for h, Initial residual = 0.00047747, Final residual = 1.41732e-06, No Iterations 1
GAMG:  Solving for p_rgh, Initial residual = 0.000750884, Final residual = 1.98243e-06, No Iterations 2
time step continuity errors : sum local = 0.000216947, global = -2.10066e-17, cumulative = -6.86471e-16
rho min/max : 1.14136 1.2193
DILUPBiCGStab:  Solving for omega, Initial residual = 1.42684e-05, Final residual = 5.60451e-07, No Iterations 1
DILUPBiCGStab:  Solving for k, Initial residual = 0.000392675, Final residual = 7.95606e-06, No Iterations 1
ExecutionTime = 218 s  ClockTime = 221 s

Time = 982

DILUPBiCGStab:  Solving for h, Initial residual = 0.000477602, Final residual = 1.42415e-06, No Iterations 1
GAMG:  Solving for p_rgh, Initial residual = 0.000753975, Final residual = 1.9712e-06, No Iterations 2
time step continuity errors : sum local = 0.000215574, global = -1.63405e-17, cumulative = -7.02811e-16
rho min/max : 1.14136 1.21931
DILUPBiCGStab:  Solving for omega, Initial residual = 1.41708e-05, Final residual = 5.70551e-07, No Iterations 1
DILUPBiCGStab:  Solving for k, Initial residual = 0.000391244, Final residual = 7.85951e-06, No Iterations 1
ExecutionTime = 218.22 s  ClockTime = 221 s

Time = 983

DILUPBiCGStab:  Solving for h, Initial residual = 0.000477419, Final residual = 1.42454e-06, No Iterations 1
GAMG:  Solving for p_rgh, Initial residual = 0.000755931, Final residual = 1.95612e-06, No Iterations 2
time step continuity errors : sum local = 0.000213937, global = 3.11676e-17, cumulative = -6.71644e-16
rho min/max : 1.14137 1.21931
DILUPBiCGStab:  Solving for omega, Initial residual = 1.428e-05, Final residual = 5.59489e-07, No Iterations 1
DILUPBiCGStab:  Solving for k, Initial residual = 0.000390228, Final residual = 7.98184e-06, No Iterations 1
ExecutionTime = 218.46 s  ClockTime = 222 s

Time = 984

DILUPBiCGStab:  Solving for h, Initial residual = 0.000477573, Final residual = 1.42464e-06, No Iterations 1
GAMG:  Solving for p_rgh, Initial residual = 0.000756671, Final residual = 1.95209e-06, No Iterations 2
time step continuity errors : sum local = 0.000213472, global = 2.42916e-17, cumulative = -6.47352e-16
rho min/max : 1.14137 1.21932
DILUPBiCGStab:  Solving for omega, Initial residual = 1.41006e-05, Final residual = 5.53161e-07, No Iterations 1
DILUPBiCGStab:  Solving for k, Initial residual = 0.000388808, Final residual = 7.84498e-06, No Iterations 1
ExecutionTime = 218.69 s  ClockTime = 222 s

Time = 985

DILUPBiCGStab:  Solving for h, Initial residual = 0.000477385, Final residual = 1.41882e-06, No Iterations 1
GAMG:  Solving for p_rgh, Initial residual = 0.00075962, Final residual = 1.94169e-06, No Iterations 2
time step continuity errors : sum local = 0.000212311, global = -2.67851e-17, cumulative = -6.74137e-16
rho min/max : 1.14138 1.21932
DILUPBiCGStab:  Solving for omega, Initial residual = 1.41042e-05, Final residual = 5.52918e-07, No Iterations 1
DILUPBiCGStab:  Solving for k, Initial residual = 0.000387918, Final residual = 7.92685e-06, No Iterations 1
ExecutionTime = 218.94 s  ClockTime = 222 s

Time = 986

DILUPBiCGStab:  Solving for h, Initial residual = 0.000477489, Final residual = 1.41455e-06, No Iterations 1
GAMG:  Solving for p_rgh, Initial residual = 0.000761554, Final residual = 1.92687e-06, No Iterations 2
time step continuity errors : sum local = 0.000210724, global = -4.66205e-18, cumulative = -6.78799e-16
rho min/max : 1.14138 1.21933
DILUPBiCGStab:  Solving for omega, Initial residual = 1.42325e-05, Final residual = 5.68851e-07, No Iterations 1
DILUPBiCGStab:  Solving for k, Initial residual = 0.00038671, Final residual = 7.82595e-06, No Iterations 1
ExecutionTime = 219.15 s  ClockTime = 222 s

Time = 987

DILUPBiCGStab:  Solving for h, Initial residual = 0.000477401, Final residual = 1.41793e-06, No Iterations 1
GAMG:  Solving for p_rgh, Initial residual = 0.000764757, Final residual = 1.92371e-06, No Iterations 2
time step continuity errors : sum local = 0.000210262, global = -1.19897e-17, cumulative = -6.90789e-16
rho min/max : 1.14139 1.21933
DILUPBiCGStab:  Solving for omega, Initial residual = 1.42093e-05, Final residual = 5.57257e-07, No Iterations 1
DILUPBiCGStab:  Solving for k, Initial residual = 0.000385787, Final residual = 7.91346e-06, No Iterations 1
ExecutionTime = 219.4 s  ClockTime = 223 s

Time = 988

DILUPBiCGStab:  Solving for h, Initial residual = 0.000477339, Final residual = 1.41739e-06, No Iterations 1
GAMG:  Solving for p_rgh, Initial residual = 0.00076825, Final residual = 1.9352e-06, No Iterations 2
time step continuity errors : sum local = 0.000211517, global = 9.63195e-18, cumulative = -6.81157e-16
rho min/max : 1.14139 1.21934
DILUPBiCGStab:  Solving for omega, Initial residual = 1.41479e-05, Final residual = 5.55787e-07, No Iterations 1
DILUPBiCGStab:  Solving for k, Initial residual = 0.000384264, Final residual = 7.79795e-06, No Iterations 1
ExecutionTime = 219.64 s  ClockTime = 223 s

Time = 989

DILUPBiCGStab:  Solving for h, Initial residual = 0.000477132, Final residual = 1.42759e-06, No Iterations 1
GAMG:  Solving for p_rgh, Initial residual = 0.000770104, Final residual = 1.95747e-06, No Iterations 2
time step continuity errors : sum local = 0.000213933, global = 1.00182e-17, cumulative = -6.71139e-16
rho min/max : 1.1414 1.21934
DILUPBiCGStab:  Solving for omega, Initial residual = 1.4262e-05, Final residual = 5.56322e-07, No Iterations 1
DILUPBiCGStab:  Solving for k, Initial residual = 0.000383312, Final residual = 7.845e-06, No Iterations 1
ExecutionTime = 219.86 s  ClockTime = 223 s

Time = 990

DILUPBiCGStab:  Solving for h, Initial residual = 0.000476831, Final residual = 1.42189e-06, No Iterations 1
GAMG:  Solving for p_rgh, Initial residual = 0.000772475, Final residual = 1.9768e-06, No Iterations 2
time step continuity errors : sum local = 0.000216009, global = -1.60502e-17, cumulative = -6.87189e-16
rho min/max : 1.1414 1.21935
DILUPBiCGStab:  Solving for omega, Initial residual = 1.42846e-05, Final residual = 5.79082e-07, No Iterations 1
DILUPBiCGStab:  Solving for k, Initial residual = 0.000382151, Final residual = 7.79125e-06, No Iterations 1
ExecutionTime = 220.09 s  ClockTime = 223 s

Time = 991

DILUPBiCGStab:  Solving for h, Initial residual = 0.000476895, Final residual = 1.43666e-06, No Iterations 1
GAMG:  Solving for p_rgh, Initial residual = 0.000773602, Final residual = 1.99098e-06, No Iterations 2
time step continuity errors : sum local = 0.000217529, global = -9.04881e-18, cumulative = -6.96238e-16
rho min/max : 1.14141 1.21935
DILUPBiCGStab:  Solving for omega, Initial residual = 1.42972e-05, Final residual = 5.67489e-07, No Iterations 1
DILUPBiCGStab:  Solving for k, Initial residual = 0.00038109, Final residual = 7.81524e-06, No Iterations 1
ExecutionTime = 220.33 s  ClockTime = 223 s

Time = 992

DILUPBiCGStab:  Solving for h, Initial residual = 0.000476557, Final residual = 1.44188e-06, No Iterations 1
GAMG:  Solving for p_rgh, Initial residual = 0.000771274, Final residual = 1.99424e-06, No Iterations 2
time step continuity errors : sum local = 0.000217706, global = 8.48196e-18, cumulative = -6.87756e-16
rho min/max : 1.14141 1.21936
DILUPBiCGStab:  Solving for omega, Initial residual = 1.41468e-05, Final residual = 5.58038e-07, No Iterations 1
DILUPBiCGStab:  Solving for k, Initial residual = 0.000380212, Final residual = 7.8069e-06, No Iterations 1
ExecutionTime = 220.55 s  ClockTime = 224 s

Time = 993

DILUPBiCGStab:  Solving for h, Initial residual = 0.000476564, Final residual = 1.45059e-06, No Iterations 1
GAMG:  Solving for p_rgh, Initial residual = 0.00076885, Final residual = 1.99557e-06, No Iterations 2
time step continuity errors : sum local = 0.000218001, global = -1.78002e-17, cumulative = -7.05556e-16
rho min/max : 1.14142 1.21936
DILUPBiCGStab:  Solving for omega, Initial residual = 1.43506e-05, Final residual = 5.82213e-07, No Iterations 1
DILUPBiCGStab:  Solving for k, Initial residual = 0.000379041, Final residual = 7.7713e-06, No Iterations 1
ExecutionTime = 220.8 s  ClockTime = 224 s

Time = 994

DILUPBiCGStab:  Solving for h, Initial residual = 0.000476645, Final residual = 1.45036e-06, No Iterations 1
GAMG:  Solving for p_rgh, Initial residual = 0.000769382, Final residual = 1.99667e-06, No Iterations 2
time step continuity errors : sum local = 0.000218223, global = 1.76512e-17, cumulative = -6.87905e-16
rho min/max : 1.14142 1.21937
DILUPBiCGStab:  Solving for omega, Initial residual = 1.44309e-05, Final residual = 5.89949e-07, No Iterations 1
DILUPBiCGStab:  Solving for k, Initial residual = 0.000378081, Final residual = 7.82186e-06, No Iterations 1
ExecutionTime = 221.03 s  ClockTime = 224 s

Time = 995

DILUPBiCGStab:  Solving for h, Initial residual = 0.000476832, Final residual = 1.45737e-06, No Iterations 1
GAMG:  Solving for p_rgh, Initial residual = 0.000770347, Final residual = 1.98407e-06, No Iterations 2
time step continuity errors : sum local = 0.000216981, global = -1.285e-17, cumulative = -7.00755e-16
rho min/max : 1.14143 1.21937
DILUPBiCGStab:  Solving for omega, Initial residual = 1.45536e-05, Final residual = 5.87131e-07, No Iterations 1
DILUPBiCGStab:  Solving for k, Initial residual = 0.00037689, Final residual = 7.75875e-06, No Iterations 1
ExecutionTime = 221.26 s  ClockTime = 224 s

Time = 996

DILUPBiCGStab:  Solving for h, Initial residual = 0.000476783, Final residual = 1.454e-06, No Iterations 1
GAMG:  Solving for p_rgh, Initial residual = 0.000773726, Final residual = 1.9948e-06, No Iterations 2
time step continuity errors : sum local = 0.000218202, global = -1.99521e-18, cumulative = -7.0275e-16
rho min/max : 1.14143 1.21938
DILUPBiCGStab:  Solving for omega, Initial residual = 1.44607e-05, Final residual = 5.59908e-07, No Iterations 1
DILUPBiCGStab:  Solving for k, Initial residual = 0.000375901, Final residual = 7.83258e-06, No Iterations 1
ExecutionTime = 221.48 s  ClockTime = 225 s

Time = 997

DILUPBiCGStab:  Solving for h, Initial residual = 0.00047648, Final residual = 1.44744e-06, No Iterations 1
GAMG:  Solving for p_rgh, Initial residual = 0.000776626, Final residual = 2.00009e-06, No Iterations 2
time step continuity errors : sum local = 0.000218658, global = -5.11866e-19, cumulative = -7.03262e-16
rho min/max : 1.14144 1.21938
DILUPBiCGStab:  Solving for omega, Initial residual = 1.45713e-05, Final residual = 5.8074e-07, No Iterations 1
DILUPBiCGStab:  Solving for k, Initial residual = 0.000374657, Final residual = 7.78476e-06, No Iterations 1
ExecutionTime = 221.74 s  ClockTime = 225 s

Time = 998

DILUPBiCGStab:  Solving for h, Initial residual = 0.000476301, Final residual = 1.44386e-06, No Iterations 1
GAMG:  Solving for p_rgh, Initial residual = 0.000777503, Final residual = 1.99452e-06, No Iterations 2
time step continuity errors : sum local = 0.000218118, global = -3.10926e-18, cumulative = -7.06371e-16
rho min/max : 1.14144 1.21939
DILUPBiCGStab:  Solving for omega, Initial residual = 1.45011e-05, Final residual = 5.87854e-07, No Iterations 1
DILUPBiCGStab:  Solving for k, Initial residual = 0.000373975, Final residual = 7.90747e-06, No Iterations 1
ExecutionTime = 221.97 s  ClockTime = 225 s

Time = 999

DILUPBiCGStab:  Solving for h, Initial residual = 0.000476022, Final residual = 1.43934e-06, No Iterations 1
GAMG:  Solving for p_rgh, Initial residual = 0.000780733, Final residual = 1.99798e-06, No Iterations 2
time step continuity errors : sum local = 0.000218552, global = -1.0102e-17, cumulative = -7.16473e-16
rho min/max : 1.14144 1.21939
DILUPBiCGStab:  Solving for omega, Initial residual = 1.49649e-05, Final residual = 5.99738e-07, No Iterations 1
DILUPBiCGStab:  Solving for k, Initial residual = 0.000372792, Final residual = 7.77341e-06, No Iterations 1
ExecutionTime = 222.22 s  ClockTime = 225 s

Time = 1000

DILUPBiCGStab:  Solving for h, Initial residual = 0.000475799, Final residual = 1.43795e-06, No Iterations 1
GAMG:  Solving for p_rgh, Initial residual = 0.000782861, Final residual = 2.00112e-06, No Iterations 2
time step continuity errors : sum local = 0.000218893, global = -1.5637e-17, cumulative = -7.3211e-16
rho min/max : 1.14145 1.2194
DILUPBiCGStab:  Solving for omega, Initial residual = 1.44964e-05, Final residual = 5.77708e-07, No Iterations 1
DILUPBiCGStab:  Solving for k, Initial residual = 0.000371727, Final residual = 7.76318e-06, No Iterations 1
ExecutionTime = 222.88 s  ClockTime = 226 s

End

