/*---------------------------------------------------------------------------*\
| =========                 |                                                 |
| \\      /  F ield         | OpenFOAM: The Open Source CFD Toolbox           |
|  \\    /   O peration     | Version:  v1906                                 |
|   \\  /    A nd           | Web:      www.OpenFOAM.com                      |
|    \\/     M anipulation  |                                                 |
\*---------------------------------------------------------------------------*/
Build  : v1906 OPENFOAM=1906
Arch   : "LSB;label=32;scalar=64"
Exec   : chtMultiRegionSimpleFoam
Date   : Oct 28 2019
Time   : 16:37:40
Host   : DESKTOP-9S60IA4
PID    : 3645
I/O    : uncollated
Case   : /home/theodore_ong/GitHub_software/OpenFoam_heatTrf_YouTube/chtMultiregionFoam/multiRegionHeaterRadiation
nProcs : 1
trapFpe: Floating point exception trapping enabled (FOAM_SIGFPE).
fileModificationChecking : Monitoring run-time modified files using timeStampMaster (fileModificationSkew 10)
allowSystemOperations : Allowing user-supplied system call operations

// * * * * * * * * * * * * * * * * * * * * * * * * * * * * * * * * * * * * * //
Create time

Create fluid mesh for region bottomAir for time = 0

Create fluid mesh for region topAir for time = 0

Create solid mesh for region heater for time = 0

Create solid mesh for region leftSolid for time = 0

Create solid mesh for region rightSolid for time = 0

*** Reading fluid mesh thermophysical properties for region bottomAir

    Adding to thermoFluid

Selecting thermodynamics package 
{
    type            heRhoThermo;
    mixture         pureMixture;
    transport       const;
    thermo          hConst;
    equationOfState perfectGas;
    specie          specie;
    energy          sensibleEnthalpy;
}

    Adding to rhoFluid

    Adding to UFluid

    Adding to phiFluid

    Adding to hRefFluid

    Adding to ghFluid

    Adding to ghfFluid

    Adding to turbulence

Selecting turbulence model type laminar
Selecting laminar stress model Stokes
Selecting radiationModel viewFactor
Selecting absorptionEmissionModel none
Selecting scatterModel none
Selecting sootModel none
    Adding MRF

No MRF models present

    Adding fvOptions

*** Reading fluid mesh thermophysical properties for region topAir

    Adding to thermoFluid

Selecting thermodynamics package 
{
    type            heRhoThermo;
    mixture         pureMixture;
    transport       const;
    thermo          hConst;
    equationOfState perfectGas;
    specie          specie;
    energy          sensibleEnthalpy;
}

    Adding to rhoFluid

    Adding to UFluid

    Adding to phiFluid

    Adding to hRefFluid

    Adding to ghFluid

    Adding to ghfFluid

    Adding to turbulence

Selecting turbulence model type laminar
Selecting laminar stress model Stokes
Selecting radiationModel viewFactor
Selecting absorptionEmissionModel none
Selecting scatterModel none
Selecting sootModel none
    Adding MRF

No MRF models present

    Adding fvOptions

*** Reading solid mesh thermophysical properties for region heater

    Adding to thermos

Selecting thermodynamics package 
{
    type            heSolidThermo;
    mixture         pureMixture;
    transport       constIso;
    thermo          hConst;
    equationOfState rhoConst;
    specie          specie;
    energy          sensibleEnthalpy;
}

    Adding to radiations

Selecting radiationModel opaqueSolid
Selecting absorptionEmissionModel constantAbsorptionEmission
Selecting scatterModel none
Selecting sootModel none
    Adding fvOptions

*** Reading solid mesh thermophysical properties for region leftSolid

    Adding to thermos

Selecting thermodynamics package 
{
    type            heSolidThermo;
    mixture         pureMixture;
    transport       constIso;
    thermo          hConst;
    equationOfState rhoConst;
    specie          specie;
    energy          sensibleEnthalpy;
}

    Adding to radiations

Selecting radiationModel opaqueSolid
Selecting absorptionEmissionModel constantAbsorptionEmission
Selecting scatterModel none
Selecting sootModel none
    Adding fvOptions

*** Reading solid mesh thermophysical properties for region rightSolid

    Adding to thermos

Selecting thermodynamics package 
{
    type            heSolidThermo;
    mixture         pureMixture;
    transport       constIso;
    thermo          hConst;
    equationOfState rhoConst;
    specie          specie;
    energy          sensibleEnthalpy;
}

    Adding to radiations

Selecting radiationModel opaqueSolid
Selecting absorptionEmissionModel constantAbsorptionEmission
Selecting scatterModel none
Selecting sootModel none
    Adding fvOptions

Time = 1


Solving for fluid region bottomAir
DILUPBiCGStab:  Solving for Ux, Initial residual = 1, Final residual = 0.005950026, No Iterations 1
DILUPBiCGStab:  Solving for Uy, Initial residual = 1, Final residual = 0.003140774, No Iterations 1
DILUPBiCGStab:  Solving for Uz, Initial residual = 1, Final residual = 0.005823598, No Iterations 1
DILUPBiCGStab:  Solving for h, Initial residual = 1, Final residual = 0.0670926, No Iterations 1
Selecting boundary radiation Model: lookup
Selecting boundary radiation Model: lookup
Selecting boundary radiation Model: lookup
Selecting boundary radiation Model: lookup
Selecting boundary radiation Model: lookup
Selecting boundary radiation Model: opaqueDiffusive
Selecting boundary radiation Model: opaqueDiffusive
Selecting boundary radiation Model: opaqueDiffusive
Solving view factor equations for band : 0
Min/max T:300 300.0214
GAMG:  Solving for p_rgh, Initial residual = 0.9816736, Final residual = 0.003765308, No Iterations 2
time step continuity errors : sum local = 0.3776926, global = -5.455993e-17, cumulative = -5.455993e-17
Min/max rho:1.15854 1.158623

Solving for fluid region topAir
DILUPBiCGStab:  Solving for Ux, Initial residual = 1, Final residual = 8.628339e-05, No Iterations 1
DILUPBiCGStab:  Solving for Uy, Initial residual = 1, Final residual = 0.0009310068, No Iterations 1
DILUPBiCGStab:  Solving for Uz, Initial residual = 0.7658026, Final residual = 0.00127069, No Iterations 1
DILUPBiCGStab:  Solving for h, Initial residual = 1, Final residual = 0.01739749, No Iterations 1
Selecting boundary radiation Model: lookup
Selecting boundary radiation Model: lookup
Selecting boundary radiation Model: lookup
Selecting boundary radiation Model: lookup
Selecting boundary radiation Model: lookup
Selecting boundary radiation Model: opaqueDiffusive
Selecting boundary radiation Model: opaqueDiffusive
Selecting boundary radiation Model: opaqueDiffusive
Solving view factor equations for band : 0
Min/max T:299.9998 300.0003
GAMG:  Solving for p_rgh, Initial residual = 0.8948578, Final residual = 0.002973423, No Iterations 2
time step continuity errors : sum local = 0.08316, global = -0.05802718, cumulative = -0.05802718
Min/max rho:1.158621 1.158623

Solving for solid region heater
DICPCG:  Solving for h, Initial residual = 1, Final residual = 0.05794321, No Iterations 1
Min/max T:300 500

Solving for solid region leftSolid
DICPCG:  Solving for h, Initial residual = 1, Final residual = 0.07475679, No Iterations 1
Min/max T:300 300.0087

Solving for solid region rightSolid
DICPCG:  Solving for h, Initial residual = 1, Final residual = 0.07369171, No Iterations 1
Min/max T:300 300.02
ExecutionTime = 0.06 s  ClockTime = 0 s

Time = 2


Solving for fluid region bottomAir
DILUPBiCGStab:  Solving for Ux, Initial residual = 0.1689159, Final residual = 0.001746911, No Iterations 1
DILUPBiCGStab:  Solving for Uy, Initial residual = 0.1331744, Final residual = 0.002510208, No Iterations 1
DILUPBiCGStab:  Solving for Uz, Initial residual = 0.161446, Final residual = 0.001635846, No Iterations 1
DILUPBiCGStab:  Solving for h, Initial residual = 0.9624945, Final residual = 0.08369737, No Iterations 1
Min/max T:300 380.5091
GAMG:  Solving for p_rgh, Initial residual = 0.8112449, Final residual = 0.004481658, No Iterations 2
time step continuity errors : sum local = 0.1656838, global = 2.250385e-17, cumulative = -0.05802718
Min/max rho:0.9135016 1.158648

Solving for fluid region topAir
DILUPBiCGStab:  Solving for Ux, Initial residual = 0.2380709, Final residual = 0.0004823951, No Iterations 1
DILUPBiCGStab:  Solving for Uy, Initial residual = 0.2791411, Final residual = 0.0008454751, No Iterations 1
DILUPBiCGStab:  Solving for Uz, Initial residual = 0.4720935, Final residual = 0.001591688, No Iterations 1
DILUPBiCGStab:  Solving for h, Initial residual = 0.3950533, Final residual = 0.01300888, No Iterations 1
Min/max T:299.9998 300.0399
GAMG:  Solving for p_rgh, Initial residual = 0.8180958, Final residual = 0.002600515, No Iterations 2
time step continuity errors : sum local = 0.02970785, global = 0.01177268, cumulative = -0.0462545
Min/max rho:1.158468 1.158622

Solving for solid region heater
DICPCG:  Solving for h, Initial residual = 0.1877447, Final residual = 0.01465519, No Iterations 1
Min/max T:300 500

Solving for solid region leftSolid
DICPCG:  Solving for h, Initial residual = 0.687802, Final residual = 0.05339896, No Iterations 1
Min/max T:300 300.0546

Solving for solid region rightSolid
DICPCG:  Solving for h, Initial residual = 0.633732, Final residual = 0.04837411, No Iterations 1
Min/max T:300 300.1017
ExecutionTime = 0.08 s  ClockTime = 0 s

Time = 3


Solving for fluid region bottomAir
DILUPBiCGStab:  Solving for Ux, Initial residual = 0.1688828, Final residual = 0.001571209, No Iterations 1
DILUPBiCGStab:  Solving for Uy, Initial residual = 0.5350603, Final residual = 0.00880091, No Iterations 1
DILUPBiCGStab:  Solving for Uz, Initial residual = 0.1871385, Final residual = 0.001980632, No Iterations 1
DILUPBiCGStab:  Solving for h, Initial residual = 0.2381809, Final residual = 0.005039565, No Iterations 1
Solving view factor equations for band : 0
Min/max T:300 418.4746
GAMG:  Solving for p_rgh, Initial residual = 0.5312344, Final residual = 0.002586619, No Iterations 2
time step continuity errors : sum local = 0.05710764, global = 2.107611e-18, cumulative = -0.0462545
Min/max rho:0.8310055 1.159176

Solving for fluid region topAir
DILUPBiCGStab:  Solving for Ux, Initial residual = 0.1965196, Final residual = 0.001668335, No Iterations 1
DILUPBiCGStab:  Solving for Uy, Initial residual = 0.7425119, Final residual = 0.002402521, No Iterations 1
DILUPBiCGStab:  Solving for Uz, Initial residual = 0.2341354, Final residual = 0.001411738, No Iterations 1
DILUPBiCGStab:  Solving for h, Initial residual = 0.4111335, Final residual = 0.01125137, No Iterations 1
Solving view factor equations for band : 0
Min/max T:300 300.1916
GAMG:  Solving for p_rgh, Initial residual = 0.5719014, Final residual = 0.004193831, No Iterations 2
time step continuity errors : sum local = 0.02669838, global = -0.02492251, cumulative = -0.07117702
Min/max rho:1.157882 1.158622

Solving for solid region heater
DICPCG:  Solving for h, Initial residual = 0.095002, Final residual = 0.007778225, No Iterations 1
Min/max T:300.0001 500

Solving for solid region leftSolid
DICPCG:  Solving for h, Initial residual = 0.513153, Final residual = 0.04118212, No Iterations 1
Min/max T:300 300.1889

Solving for solid region rightSolid
DICPCG:  Solving for h, Initial residual = 0.4591107, Final residual = 0.03608582, No Iterations 1
Min/max T:300 300.3002
ExecutionTime = 0.08 s  ClockTime = 0 s

Time = 4


Solving for fluid region bottomAir
DILUPBiCGStab:  Solving for Ux, Initial residual = 0.1555558, Final residual = 0.00156162, No Iterations 1
DILUPBiCGStab:  Solving for Uy, Initial residual = 0.6198556, Final residual = 0.009822426, No Iterations 1
DILUPBiCGStab:  Solving for Uz, Initial residual = 0.337512, Final residual = 0.003339327, No Iterations 1
DILUPBiCGStab:  Solving for h, Initial residual = 0.2284337, Final residual = 0.005089348, No Iterations 1
Min/max T:300 438.4003
GAMG:  Solving for p_rgh, Initial residual = 0.7476218, Final residual = 0.00747376, No Iterations 2
time step continuity errors : sum local = 0.164074, global = -7.478619e-18, cumulative = -0.07117702
Min/max rho:0.7936342 1.159761

Solving for fluid region topAir
DILUPBiCGStab:  Solving for Ux, Initial residual = 0.2572592, Final residual = 0.0005301336, No Iterations 1
DILUPBiCGStab:  Solving for Uy, Initial residual = 0.5969372, Final residual = 0.001861876, No Iterations 1
DILUPBiCGStab:  Solving for Uz, Initial residual = 0.1182716, Final residual = 0.0004206248, No Iterations 1
DILUPBiCGStab:  Solving for h, Initial residual = 0.4716314, Final residual = 0.009668272, No Iterations 1
Min/max T:300 300.538
GAMG:  Solving for p_rgh, Initial residual = 0.7982603, Final residual = 0.004094446, No Iterations 3
time step continuity errors : sum local = 0.01839108, global = -0.01807422, cumulative = -0.08925124
Min/max rho:1.156547 1.158622

Solving for solid region heater
DICPCG:  Solving for h, Initial residual = 0.06102329, Final residual = 0.004459448, No Iterations 1
Min/max T:300.0004 500

Solving for solid region leftSolid
DICPCG:  Solving for h, Initial residual = 0.3981709, Final residual = 0.03274206, No Iterations 1
Min/max T:300 300.4741

Solving for solid region rightSolid
DICPCG:  Solving for h, Initial residual = 0.3551877, Final residual = 0.02854676, No Iterations 1
Min/max T:300 300.6692
ExecutionTime = 0.1 s  ClockTime = 0 s

Time = 5


Solving for fluid region bottomAir
DILUPBiCGStab:  Solving for Ux, Initial residual = 0.07361738, Final residual = 0.0008605876, No Iterations 1
DILUPBiCGStab:  Solving for Uy, Initial residual = 0.2163719, Final residual = 0.002880719, No Iterations 1
DILUPBiCGStab:  Solving for Uz, Initial residual = 0.1469209, Final residual = 0.001555967, No Iterations 1
DILUPBiCGStab:  Solving for h, Initial residual = 0.1343823, Final residual = 0.002405673, No Iterations 1
Min/max T:300 449.8309
GAMG:  Solving for p_rgh, Initial residual = 0.5631182, Final residual = 0.001994476, No Iterations 3
time step continuity errors : sum local = 0.02485851, global = 2.00563e-17, cumulative = -0.08925124
Min/max rho:0.7741876 1.16084

Solving for fluid region topAir
DILUPBiCGStab:  Solving for Ux, Initial residual = 0.2303547, Final residual = 0.001540699, No Iterations 1
DILUPBiCGStab:  Solving for Uy, Initial residual = 0.1729264, Final residual = 0.0006572408, No Iterations 1
DILUPBiCGStab:  Solving for Uz, Initial residual = 0.1210057, Final residual = 0.0004292543, No Iterations 1
DILUPBiCGStab:  Solving for h, Initial residual = 0.3470706, Final residual = 0.006178534, No Iterations 1
Min/max T:300 301.149
GAMG:  Solving for p_rgh, Initial residual = 0.48451, Final residual = 0.003995881, No Iterations 3
time step continuity errors : sum local = 0.008198749, global = -0.008105927, cumulative = -0.09735716
Min/max rho:1.154201 1.158622

Solving for solid region heater
DICPCG:  Solving for h, Initial residual = 0.04463439, Final residual = 0.002891294, No Iterations 1
Min/max T:300.0015 500

Solving for solid region leftSolid
DICPCG:  Solving for h, Initial residual = 0.317932, Final residual = 0.02665518, No Iterations 1
Min/max T:300 300.9635

Solving for solid region rightSolid
DICPCG:  Solving for h, Initial residual = 0.2852687, Final residual = 0.0233476, No Iterations 1
Min/max T:300 301.2459
ExecutionTime = 0.1 s  ClockTime = 0 s

Time = 6


Solving for fluid region bottomAir
DILUPBiCGStab:  Solving for Ux, Initial residual = 0.07315445, Final residual = 0.0008306893, No Iterations 1
DILUPBiCGStab:  Solving for Uy, Initial residual = 0.2780927, Final residual = 0.004938966, No Iterations 1
DILUPBiCGStab:  Solving for Uz, Initial residual = 0.1121904, Final residual = 0.001631454, No Iterations 1
DILUPBiCGStab:  Solving for h, Initial residual = 0.1202882, Final residual = 0.002179253, No Iterations 1
Solving view factor equations for band : 0
Min/max T:300 456.9872
GAMG:  Solving for p_rgh, Initial residual = 0.4679406, Final residual = 0.003453459, No Iterations 2
time step continuity errors : sum local = 0.02479109, global = -9.382268e-18, cumulative = -0.09735716
Min/max rho:0.7626462 1.161728

Solving for fluid region topAir
DILUPBiCGStab:  Solving for Ux, Initial residual = 0.1725762, Final residual = 0.001231769, No Iterations 1
DILUPBiCGStab:  Solving for Uy, Initial residual = 0.4986862, Final residual = 0.001025303, No Iterations 1
DILUPBiCGStab:  Solving for Uz, Initial residual = 0.1250819, Final residual = 0.0005014373, No Iterations 1
DILUPBiCGStab:  Solving for h, Initial residual = 0.2725287, Final residual = 0.004662641, No Iterations 1
Solving view factor equations for band : 0
Min/max T:300 302.1379
GAMG:  Solving for p_rgh, Initial residual = 0.4180326, Final residual = 0.003133981, No Iterations 2
time step continuity errors : sum local = 0.006162613, global = 0.005372746, cumulative = -0.09198442
Min/max rho:1.150424 1.158622

Solving for solid region heater
DICPCG:  Solving for h, Initial residual = 0.03545496, Final residual = 0.001977656, No Iterations 1
Min/max T:300.0045 500

Solving for solid region leftSolid
DICPCG:  Solving for h, Initial residual = 0.2595566, Final residual = 0.02207921, No Iterations 1
Min/max T:300 301.684

Solving for solid region rightSolid
DICPCG:  Solving for h, Initial residual = 0.2355724, Final residual = 0.0195436, No Iterations 1
Min/max T:300 302.0424
ExecutionTime = 0.11 s  ClockTime = 0 s

Time = 7


Solving for fluid region bottomAir
DILUPBiCGStab:  Solving for Ux, Initial residual = 0.06092933, Final residual = 0.000762158, No Iterations 1
DILUPBiCGStab:  Solving for Uy, Initial residual = 0.1888474, Final residual = 0.003065465, No Iterations 1
DILUPBiCGStab:  Solving for Uz, Initial residual = 0.116613, Final residual = 0.001581504, No Iterations 1
DILUPBiCGStab:  Solving for h, Initial residual = 0.1001959, Final residual = 0.002078306, No Iterations 1
Min/max T:300.0001 461.8423
GAMG:  Solving for p_rgh, Initial residual = 0.5685331, Final residual = 0.00494352, No Iterations 2
time step continuity errors : sum local = 0.03058003, global = 4.463376e-17, cumulative = -0.09198442
Min/max rho:0.7553282 1.162804

Solving for fluid region topAir
DILUPBiCGStab:  Solving for Ux, Initial residual = 0.1312901, Final residual = 0.0006749335, No Iterations 1
DILUPBiCGStab:  Solving for Uy, Initial residual = 0.3466559, Final residual = 0.0007832524, No Iterations 1
DILUPBiCGStab:  Solving for Uz, Initial residual = 0.06937928, Final residual = 0.0002773346, No Iterations 1
DILUPBiCGStab:  Solving for h, Initial residual = 0.2217283, Final residual = 0.00367496, No Iterations 1
Min/max T:300 303.5246
GAMG:  Solving for p_rgh, Initial residual = 0.4191669, Final residual = 0.00317533, No Iterations 3
time step continuity errors : sum local = 0.004462324, global = 0.00441188, cumulative = -0.08757254
Min/max rho:1.145167 1.158622

Solving for solid region heater
DICPCG:  Solving for h, Initial residual = 0.0295257, Final residual = 0.00139848, No Iterations 1
Min/max T:300.0116 500

Solving for solid region leftSolid
DICPCG:  Solving for h, Initial residual = 0.2158927, Final residual = 0.01852595, No Iterations 1
Min/max T:300.0001 302.6329

Solving for solid region rightSolid
DICPCG:  Solving for h, Initial residual = 0.1982318, Final residual = 0.01657637, No Iterations 1
Min/max T:300.0001 303.0481
ExecutionTime = 0.11 s  ClockTime = 0 s

Time = 8


Solving for fluid region bottomAir
DILUPBiCGStab:  Solving for Ux, Initial residual = 0.03750216, Final residual = 0.000437635, No Iterations 1
DILUPBiCGStab:  Solving for Uy, Initial residual = 0.07571706, Final residual = 0.001450158, No Iterations 1
DILUPBiCGStab:  Solving for Uz, Initial residual = 0.07035145, Final residual = 0.0007740799, No Iterations 1
DILUPBiCGStab:  Solving for h, Initial residual = 0.09349353, Final residual = 0.001747485, No Iterations 1
Min/max T:300.0001 465.3703
GAMG:  Solving for p_rgh, Initial residual = 0.2887951, Final residual = 0.002346795, No Iterations 3
time step continuity errors : sum local = 0.009839482, global = 7.240663e-18, cumulative = -0.08757254
Min/max rho:0.7503634 1.163984

Solving for fluid region topAir
DILUPBiCGStab:  Solving for Ux, Initial residual = 0.07186838, Final residual = 0.0001742298, No Iterations 1
DILUPBiCGStab:  Solving for Uy, Initial residual = 0.2509067, Final residual = 0.0006066706, No Iterations 1
DILUPBiCGStab:  Solving for Uz, Initial residual = 0.05351692, Final residual = 0.0001535014, No Iterations 1
DILUPBiCGStab:  Solving for h, Initial residual = 0.1852095, Final residual = 0.002974742, No Iterations 1
Min/max T:300 305.2344
GAMG:  Solving for p_rgh, Initial residual = 0.1908231, Final residual = 0.001011471, No Iterations 4
time step continuity errors : sum local = 0.0007624486, global = 0.0007451595, cumulative = -0.08682738
Min/max rho:1.138753 1.158621

Solving for solid region heater
DICPCG:  Solving for h, Initial residual = 0.02541898, Final residual = 0.001060902, No Iterations 1
Min/max T:300.0252 500

Solving for solid region leftSolid
DICPCG:  Solving for h, Initial residual = 0.1826774, Final residual = 0.0157223, No Iterations 1
Min/max T:300.0001 303.7851

Solving for solid region rightSolid
DICPCG:  Solving for h, Initial residual = 0.1694903, Final residual = 0.01421074, No Iterations 1
Min/max T:300.0001 304.2357
ExecutionTime = 0.13 s  ClockTime = 0 s

Time = 9


Solving for fluid region bottomAir
DILUPBiCGStab:  Solving for Ux, Initial residual = 0.03269534, Final residual = 0.0003253124, No Iterations 1
DILUPBiCGStab:  Solving for Uy, Initial residual = 0.1022377, Final residual = 0.002196987, No Iterations 1
DILUPBiCGStab:  Solving for Uz, Initial residual = 0.06098351, Final residual = 0.0006970929, No Iterations 1
DILUPBiCGStab:  Solving for h, Initial residual = 0.0864553, Final residual = 0.001443351, No Iterations 1
Solving view factor equations for band : 0
Min/max T:300.0001 468.0668
GAMG:  Solving for p_rgh, Initial residual = 0.2687258, Final residual = 0.001449852, No Iterations 3
time step continuity errors : sum local = 0.004994228, global = -2.403356e-17, cumulative = -0.08682738
Min/max rho:0.7468318 1.165218

Solving for fluid region topAir
DILUPBiCGStab:  Solving for Ux, Initial residual = 0.06672932, Final residual = 0.0001441326, No Iterations 1
DILUPBiCGStab:  Solving for Uy, Initial residual = 0.2784817, Final residual = 0.0005250331, No Iterations 1
DILUPBiCGStab:  Solving for Uz, Initial residual = 0.04153331, Final residual = 9.806021e-05, No Iterations 1
DILUPBiCGStab:  Solving for h, Initial residual = 0.157629, Final residual = 0.002449379, No Iterations 1
Solving view factor equations for band : 0
Min/max T:300 307.1948
GAMG:  Solving for p_rgh, Initial residual = 0.3619303, Final residual = 0.001802317, No Iterations 3
time step continuity errors : sum local = 0.0007267083, global = -0.0006556161, cumulative = -0.08748299
Min/max rho:1.131486 1.158621

Solving for solid region heater
DICPCG:  Solving for h, Initial residual = 0.02240618, Final residual = 0.0008398423, No Iterations 1
Min/max T:300.049 500

Solving for solid region leftSolid
DICPCG:  Solving for h, Initial residual = 0.1571905, Final residual = 0.01349343, No Iterations 1
Min/max T:300.0001 305.1027

Solving for solid region rightSolid
DICPCG:  Solving for h, Initial residual = 0.1472494, Final residual = 0.01235676, No Iterations 1
Min/max T:300.0001 305.5695
ExecutionTime = 0.13 s  ClockTime = 0 s

Time = 10


Solving for fluid region bottomAir
DILUPBiCGStab:  Solving for Ux, Initial residual = 0.03086709, Final residual = 0.0002780883, No Iterations 1
DILUPBiCGStab:  Solving for Uy, Initial residual = 0.06474817, Final residual = 0.001367733, No Iterations 1
DILUPBiCGStab:  Solving for Uz, Initial residual = 0.05359782, Final residual = 0.0005972831, No Iterations 1
DILUPBiCGStab:  Solving for h, Initial residual = 0.08044845, Final residual = 0.001309474, No Iterations 1
Min/max T:300.0002 470.2052
GAMG:  Solving for p_rgh, Initial residual = 0.2195541, Final residual = 0.0009693008, No Iterations 3
time step continuity errors : sum local = 0.003424827, global = 2.749667e-17, cumulative = -0.08748299
Min/max rho:0.7441715 1.166372

Solving for fluid region topAir
DILUPBiCGStab:  Solving for Ux, Initial residual = 0.05932602, Final residual = 8.322105e-05, No Iterations 1
DILUPBiCGStab:  Solving for Uy, Initial residual = 0.1469544, Final residual = 0.0003330541, No Iterations 1
DILUPBiCGStab:  Solving for Uz, Initial residual = 0.0383327, Final residual = 6.840357e-05, No Iterations 1
DILUPBiCGStab:  Solving for h, Initial residual = 0.1360888, Final residual = 0.002035656, No Iterations 1
Min/max T:300 309.3277
GAMG:  Solving for p_rgh, Initial residual = 0.2988927, Final residual = 0.002558108, No Iterations 3
time step continuity errors : sum local = 0.0008207067, global = -0.00077503, cumulative = -0.08825802
Min/max rho:1.123684 1.158621

Solving for solid region heater
DICPCG:  Solving for h, Initial residual = 0.02008326, Final residual = 0.0006920988, No Iterations 1
Min/max T:300.0872 500

Solving for solid region leftSolid
DICPCG:  Solving for h, Initial residual = 0.1370718, Final residual = 0.01178256, No Iterations 1
Min/max T:300.0002 306.5444

Solving for solid region rightSolid
DICPCG:  Solving for h, Initial residual = 0.1294603, Final residual = 0.01089691, No Iterations 1
Min/max T:300.0002 307.0121
ExecutionTime = 0.14 s  ClockTime = 0 s

Time = 11


Solving for fluid region bottomAir
DILUPBiCGStab:  Solving for Ux, Initial residual = 0.03034263, Final residual = 0.0002680726, No Iterations 1
DILUPBiCGStab:  Solving for Uy, Initial residual = 0.06198889, Final residual = 0.0009015109, No Iterations 1
DILUPBiCGStab:  Solving for Uz, Initial residual = 0.05363961, Final residual = 0.0005459597, No Iterations 1
DILUPBiCGStab:  Solving for h, Initial residual = 0.0754253, Final residual = 0.001197528, No Iterations 1
Min/max T:300.0003 471.9552
GAMG:  Solving for p_rgh, Initial residual = 0.1630993, Final residual = 0.001140651, No Iterations 3
time step continuity errors : sum local = 0.003549589, global = 2.052371e-17, cumulative = -0.08825802
Min/max rho:0.7421107 1.167471

Solving for fluid region topAir
DILUPBiCGStab:  Solving for Ux, Initial residual = 0.05362515, Final residual = 8.964886e-05, No Iterations 1
DILUPBiCGStab:  Solving for Uy, Initial residual = 0.1349288, Final residual = 0.0002818023, No Iterations 1
DILUPBiCGStab:  Solving for Uz, Initial residual = 0.03969765, Final residual = 6.586147e-05, No Iterations 1
DILUPBiCGStab:  Solving for h, Initial residual = 0.1189021, Final residual = 0.001705641, No Iterations 1
Min/max T:300 311.5626
GAMG:  Solving for p_rgh, Initial residual = 0.1353002, Final residual = 0.0007461515, No Iterations 3
time step continuity errors : sum local = 0.0002575189, global = -0.0002340057, cumulative = -0.08849203
Min/max rho:1.115623 1.158621

Solving for solid region heater
DICPCG:  Solving for h, Initial residual = 0.01821276, Final residual = 0.0005942661, No Iterations 1
Min/max T:300.1436 500

Solving for solid region leftSolid
DICPCG:  Solving for h, Initial residual = 0.1208148, Final residual = 0.0103554, No Iterations 1
Min/max T:300.0003 308.0707

Solving for solid region rightSolid
DICPCG:  Solving for h, Initial residual = 0.1150422, Final residual = 0.009661487, No Iterations 1
Min/max T:300.0003 308.5283
ExecutionTime = 0.14 s  ClockTime = 0 s

Time = 12


Solving for fluid region bottomAir
DILUPBiCGStab:  Solving for Ux, Initial residual = 0.02986534, Final residual = 0.0002795221, No Iterations 1
DILUPBiCGStab:  Solving for Uy, Initial residual = 0.05807465, Final residual = 0.000784332, No Iterations 1
DILUPBiCGStab:  Solving for Uz, Initial residual = 0.05695874, Final residual = 0.0005888707, No Iterations 1
DILUPBiCGStab:  Solving for h, Initial residual = 0.07008617, Final residual = 0.001059389, No Iterations 1
Solving view factor equations for band : 0
Min/max T:300.0005 473.4187
GAMG:  Solving for p_rgh, Initial residual = 0.1549522, Final residual = 0.00124808, No Iterations 3
time step continuity errors : sum local = 0.00376676, global = 2.983799e-17, cumulative = -0.08849203
Min/max rho:0.7404995 1.168548

Solving for fluid region topAir
DILUPBiCGStab:  Solving for Ux, Initial residual = 0.04707832, Final residual = 8.575794e-05, No Iterations 1
DILUPBiCGStab:  Solving for Uy, Initial residual = 0.1305973, Final residual = 0.0002501622, No Iterations 1
DILUPBiCGStab:  Solving for Uz, Initial residual = 0.03691122, Final residual = 6.189079e-05, No Iterations 1
DILUPBiCGStab:  Solving for h, Initial residual = 0.1048766, Final residual = 0.00143283, No Iterations 1
Solving view factor equations for band : 0
Min/max T:300 313.841
GAMG:  Solving for p_rgh, Initial residual = 0.122746, Final residual = 0.0006637049, No Iterations 3
time step continuity errors : sum local = 0.0002318531, global = 0.0002248963, cumulative = -0.08826713
Min/max rho:1.107524 1.158621

Solving for solid region heater
DICPCG:  Solving for h, Initial residual = 0.01661874, Final residual = 0.0005394857, No Iterations 1
Min/max T:300.2222 500

Solving for solid region leftSolid
DICPCG:  Solving for h, Initial residual = 0.1077173, Final residual = 0.009160343, No Iterations 1
Min/max T:300.0005 309.6471

Solving for solid region rightSolid
DICPCG:  Solving for h, Initial residual = 0.1032807, Final residual = 0.008613286, No Iterations 1
Min/max T:300.0005 310.0875
ExecutionTime = 0.16 s  ClockTime = 0 s

Time = 13


Solving for fluid region bottomAir
DILUPBiCGStab:  Solving for Ux, Initial residual = 0.02841997, Final residual = 0.0002691729, No Iterations 1
DILUPBiCGStab:  Solving for Uy, Initial residual = 0.05224148, Final residual = 0.0007705339, No Iterations 1
DILUPBiCGStab:  Solving for Uz, Initial residual = 0.05695099, Final residual = 0.0005997606, No Iterations 1
DILUPBiCGStab:  Solving for h, Initial residual = 0.06661685, Final residual = 0.006650115, No Iterations 1
Min/max T:300.0009 474.6625
GAMG:  Solving for p_rgh, Initial residual = 0.1359274, Final residual = 0.001166596, No Iterations 3
time step continuity errors : sum local = 0.003609757, global = -1.81484e-17, cumulative = -0.08826713
Min/max rho:0.7392388 1.169622

Solving for fluid region topAir
DILUPBiCGStab:  Solving for Ux, Initial residual = 0.03967955, Final residual = 6.665104e-05, No Iterations 1
DILUPBiCGStab:  Solving for Uy, Initial residual = 0.1214983, Final residual = 0.0002109896, No Iterations 1
DILUPBiCGStab:  Solving for Uz, Initial residual = 0.03474656, Final residual = 5.909115e-05, No Iterations 1
DILUPBiCGStab:  Solving for h, Initial residual = 0.09327774, Final residual = 0.0012084, No Iterations 1
Min/max T:300 316.1176
GAMG:  Solving for p_rgh, Initial residual = 0.09168575, Final residual = 0.0007109843, No Iterations 3
time step continuity errors : sum local = 0.0002199688, global = 0.0002115099, cumulative = -0.08805562
Min/max rho:1.099548 1.158621

Solving for solid region heater
DICPCG:  Solving for h, Initial residual = 0.01526242, Final residual = 0.0005091815, No Iterations 1
Min/max T:300.3265 500

Solving for solid region leftSolid
DICPCG:  Solving for h, Initial residual = 0.09707365, Final residual = 0.008175561, No Iterations 1
Min/max T:300.0008 311.2451

Solving for solid region rightSolid
DICPCG:  Solving for h, Initial residual = 0.09353933, Final residual = 0.007751683, No Iterations 1
Min/max T:300.0009 311.6644
ExecutionTime = 0.16 s  ClockTime = 0 s

Time = 14


Solving for fluid region bottomAir
DILUPBiCGStab:  Solving for Ux, Initial residual = 0.02724133, Final residual = 0.0002505547, No Iterations 1
DILUPBiCGStab:  Solving for Uy, Initial residual = 0.05141665, Final residual = 0.0007934108, No Iterations 1
DILUPBiCGStab:  Solving for Uz, Initial residual = 0.05785483, Final residual = 0.0006282134, No Iterations 1
DILUPBiCGStab:  Solving for h, Initial residual = 0.06608715, Final residual = 0.0009089661, No Iterations 1
Min/max T:300.0014 475.7368
GAMG:  Solving for p_rgh, Initial residual = 0.1372898, Final residual = 0.001143705, No Iterations 3
time step continuity errors : sum local = 0.003488403, global = -2.028549e-17, cumulative = -0.08805562
Min/max rho:0.738191 1.170605

Solving for fluid region topAir
DILUPBiCGStab:  Solving for Ux, Initial residual = 0.03501928, Final residual = 5.306982e-05, No Iterations 1
DILUPBiCGStab:  Solving for Uy, Initial residual = 0.1234664, Final residual = 0.0001854312, No Iterations 1
DILUPBiCGStab:  Solving for Uz, Initial residual = 0.03470688, Final residual = 5.773975e-05, No Iterations 1
DILUPBiCGStab:  Solving for h, Initial residual = 0.0835718, Final residual = 0.001026998, No Iterations 1
Min/max T:300 318.36
GAMG:  Solving for p_rgh, Initial residual = 0.09232313, Final residual = 0.0005361526, No Iterations 2
time step continuity errors : sum local = 0.000143738, global = 0.0001124004, cumulative = -0.08794322
Min/max rho:1.091803 1.158621

Solving for solid region heater
DICPCG:  Solving for h, Initial residual = 0.01406478, Final residual = 0.0004880274, No Iterations 1
Min/max T:300.4589 500

Solving for solid region leftSolid
DICPCG:  Solving for h, Initial residual = 0.08820989, Final residual = 0.007351139, No Iterations 1
Min/max T:300.0014 312.8425

Solving for solid region rightSolid
DICPCG:  Solving for h, Initial residual = 0.08540742, Final residual = 0.007020591, No Iterations 1
Min/max T:300.0015 313.2392
ExecutionTime = 0.17 s  ClockTime = 0 s

Time = 15


Solving for fluid region bottomAir
DILUPBiCGStab:  Solving for Ux, Initial residual = 0.02655812, Final residual = 0.000237785, No Iterations 1
DILUPBiCGStab:  Solving for Uy, Initial residual = 0.05076203, Final residual = 0.0007301341, No Iterations 1
DILUPBiCGStab:  Solving for Uz, Initial residual = 0.06087537, Final residual = 0.0006837612, No Iterations 1
DILUPBiCGStab:  Solving for h, Initial residual = 0.06943912, Final residual = 0.0009809747, No Iterations 1
Solving view factor equations for band : 0
Min/max T:300.0024 476.6745
GAMG:  Solving for p_rgh, Initial residual = 0.1319516, Final residual = 0.0009090118, No Iterations 3
time step continuity errors : sum local = 0.002676048, global = 1.557337e-17, cumulative = -0.08794322
Min/max rho:0.7374366 1.17171

Solving for fluid region topAir
DILUPBiCGStab:  Solving for Ux, Initial residual = 0.03187487, Final residual = 4.70368e-05, No Iterations 1
DILUPBiCGStab:  Solving for Uy, Initial residual = 0.1133899, Final residual = 0.0001584146, No Iterations 1
DILUPBiCGStab:  Solving for Uz, Initial residual = 0.03579012, Final residual = 5.695342e-05, No Iterations 1
DILUPBiCGStab:  Solving for h, Initial residual = 0.07532688, Final residual = 0.0008793824, No Iterations 1
Solving view factor equations for band : 0
Min/max T:300 320.5452
GAMG:  Solving for p_rgh, Initial residual = 0.08131251, Final residual = 0.0004091872, No Iterations 2
time step continuity errors : sum local = 0.000105168, global = -8.516746e-05, cumulative = -0.08802839
Min/max rho:1.08436 1.158621

Solving for solid region heater
DICPCG:  Solving for h, Initial residual = 0.01301974, Final residual = 0.0004739772, No Iterations 1
Min/max T:300.6214 500

Solving for solid region leftSolid
DICPCG:  Solving for h, Initial residual = 0.0807024, Final residual = 0.006650141, No Iterations 1
Min/max T:300.0023 314.4225

Solving for solid region rightSolid
DICPCG:  Solving for h, Initial residual = 0.07850812, Final residual = 0.006404749, No Iterations 1
Min/max T:300.0024 314.7966
ExecutionTime = 0.19 s  ClockTime = 0 s

Time = 16


Solving for fluid region bottomAir
DILUPBiCGStab:  Solving for Ux, Initial residual = 0.02603408, Final residual = 0.0002259531, No Iterations 1
DILUPBiCGStab:  Solving for Uy, Initial residual = 0.05133536, Final residual = 0.0006945212, No Iterations 1
DILUPBiCGStab:  Solving for Uz, Initial residual = 0.06123235, Final residual = 0.0006864138, No Iterations 1
DILUPBiCGStab:  Solving for h, Initial residual = 0.06944676, Final residual = 0.0009258996, No Iterations 1
Min/max T:300.0039 477.4994
GAMG:  Solving for p_rgh, Initial residual = 0.130282, Final residual = 0.0006932648, No Iterations 3
time step continuity errors : sum local = 0.001952103, global = 3.503478e-17, cumulative = -0.08802839
Min/max rho:0.7368397 1.172782

Solving for fluid region topAir
DILUPBiCGStab:  Solving for Ux, Initial residual = 0.02904463, Final residual = 4.30217e-05, No Iterations 1
DILUPBiCGStab:  Solving for Uy, Initial residual = 0.1035566, Final residual = 0.0001369275, No Iterations 1
DILUPBiCGStab:  Solving for Uz, Initial residual = 0.03683753, Final residual = 5.62321e-05, No Iterations 1
DILUPBiCGStab:  Solving for h, Initial residual = 0.06824821, Final residual = 0.0007574386, No Iterations 1
Min/max T:300 322.658
GAMG:  Solving for p_rgh, Initial residual = 0.06432085, Final residual = 0.0005144734, No Iterations 2
time step continuity errors : sum local = 0.0001352292, global = -0.0001123601, cumulative = -0.08814075
Min/max rho:1.07726 1.158621

Solving for solid region heater
DICPCG:  Solving for h, Initial residual = 0.01210967, Final residual = 0.0004631037, No Iterations 1
Min/max T:300.8149 500

Solving for solid region leftSolid
DICPCG:  Solving for h, Initial residual = 0.07439542, Final residual = 0.006050219, No Iterations 1
Min/max T:300.0038 315.9729

Solving for solid region rightSolid
DICPCG:  Solving for h, Initial residual = 0.07263361, Final residual = 0.005866036, No Iterations 1
Min/max T:300.0039 316.3253
ExecutionTime = 0.19 s  ClockTime = 0 s

Time = 17


Solving for fluid region bottomAir
DILUPBiCGStab:  Solving for Ux, Initial residual = 0.02640258, Final residual = 0.0002422218, No Iterations 1
DILUPBiCGStab:  Solving for Uy, Initial residual = 0.05120443, Final residual = 0.0006966231, No Iterations 1
DILUPBiCGStab:  Solving for Uz, Initial residual = 0.06283679, Final residual = 0.0006660704, No Iterations 1
DILUPBiCGStab:  Solving for h, Initial residual = 0.06596765, Final residual = 0.0008715413, No Iterations 1
Min/max T:300.0061 478.2323
GAMG:  Solving for p_rgh, Initial residual = 0.1350559, Final residual = 0.0009666902, No Iterations 3
time step continuity errors : sum local = 0.002570918, global = -2.998645e-17, cumulative = -0.08814075
Min/max rho:0.7363842 1.173847

Solving for fluid region topAir
DILUPBiCGStab:  Solving for Ux, Initial residual = 0.02641472, Final residual = 3.979914e-05, No Iterations 1
DILUPBiCGStab:  Solving for Uy, Initial residual = 0.09860714, Final residual = 0.0001238872, No Iterations 1
DILUPBiCGStab:  Solving for Uz, Initial residual = 0.03748355, Final residual = 5.521394e-05, No Iterations 1
DILUPBiCGStab:  Solving for h, Initial residual = 0.06214263, Final residual = 0.0006588875, No Iterations 1
Min/max T:300 324.6898
GAMG:  Solving for p_rgh, Initial residual = 0.05176391, Final residual = 0.000353379, No Iterations 2
time step continuity errors : sum local = 9.829532e-05, global = -6.21381e-05, cumulative = -0.08820289
Min/max rho:1.070519 1.158621

Solving for solid region heater
DICPCG:  Solving for h, Initial residual = 0.01130779, Final residual = 0.0004543189, No Iterations 1
Min/max T:301.0394 500

Solving for solid region leftSolid
DICPCG:  Solving for h, Initial residual = 0.06904337, Final residual = 0.005540063, No Iterations 1
Min/max T:300.0061 317.4853

Solving for solid region rightSolid
DICPCG:  Solving for h, Initial residual = 0.06760931, Final residual = 0.005393812, No Iterations 1
Min/max T:300.0061 317.8174
ExecutionTime = 0.21 s  ClockTime = 0 s

Time = 18


Solving for fluid region bottomAir
DILUPBiCGStab:  Solving for Ux, Initial residual = 0.02593088, Final residual = 0.0002365784, No Iterations 1
DILUPBiCGStab:  Solving for Uy, Initial residual = 0.0501583, Final residual = 0.0006780439, No Iterations 1
DILUPBiCGStab:  Solving for Uz, Initial residual = 0.06526133, Final residual = 0.0006710371, No Iterations 1
DILUPBiCGStab:  Solving for h, Initial residual = 0.06433501, Final residual = 0.0008466465, No Iterations 1
Solving view factor equations for band : 0
Min/max T:300.0092 478.8872
GAMG:  Solving for p_rgh, Initial residual = 0.136981, Final residual = 0.00112463, No Iterations 3
time step continuity errors : sum local = 0.002866, global = 1.058904e-17, cumulative = -0.08820289
Min/max rho:0.7360729 1.174945

Solving for fluid region topAir
DILUPBiCGStab:  Solving for Ux, Initial residual = 0.02409643, Final residual = 3.677623e-05, No Iterations 1
DILUPBiCGStab:  Solving for Uy, Initial residual = 0.09613555, Final residual = 0.0001161971, No Iterations 1
DILUPBiCGStab:  Solving for Uz, Initial residual = 0.03795614, Final residual = 5.402746e-05, No Iterations 1
DILUPBiCGStab:  Solving for h, Initial residual = 0.05682756, Final residual = 0.0005795688, No Iterations 1
Solving view factor equations for band : 0
Min/max T:300 326.6359
GAMG:  Solving for p_rgh, Initial residual = 0.04517568, Final residual = 0.00025875, No Iterations 2
time step continuity errors : sum local = 7.595807e-05, global = 5.920096e-06, cumulative = -0.08819697
Min/max rho:1.06414 1.158621

Solving for solid region heater
DICPCG:  Solving for h, Initial residual = 0.01059341, Final residual = 0.000446224, No Iterations 1
Min/max T:301.2946 500

Solving for solid region leftSolid
DICPCG:  Solving for h, Initial residual = 0.06435241, Final residual = 0.005087186, No Iterations 1
Min/max T:300.0093 318.954

Solving for solid region rightSolid
DICPCG:  Solving for h, Initial residual = 0.06318525, Final residual = 0.004970592, No Iterations 1
Min/max T:300.0092 319.2672
ExecutionTime = 0.21 s  ClockTime = 0 s

Time = 19


Solving for fluid region bottomAir
DILUPBiCGStab:  Solving for Ux, Initial residual = 0.02583292, Final residual = 0.0002281949, No Iterations 1
DILUPBiCGStab:  Solving for Uy, Initial residual = 0.04877426, Final residual = 0.0006440124, No Iterations 1
DILUPBiCGStab:  Solving for Uz, Initial residual = 0.06642548, Final residual = 0.0006564303, No Iterations 1
DILUPBiCGStab:  Solving for h, Initial residual = 0.06288854, Final residual = 0.0008295557, No Iterations 1
Min/max T:300.0136 479.4749
GAMG:  Solving for p_rgh, Initial residual = 0.1328595, Final residual = 0.001130086, No Iterations 3
time step continuity errors : sum local = 0.002829356, global = 7.606096e-18, cumulative = -0.08819697
Min/max rho:0.7358875 1.176074

Solving for fluid region topAir
DILUPBiCGStab:  Solving for Ux, Initial residual = 0.02209559, Final residual = 3.372537e-05, No Iterations 1
DILUPBiCGStab:  Solving for Uy, Initial residual = 0.09328893, Final residual = 0.0001091068, No Iterations 1
DILUPBiCGStab:  Solving for Uz, Initial residual = 0.03830059, Final residual = 5.285311e-05, No Iterations 1
DILUPBiCGStab:  Solving for h, Initial residual = 0.05218257, Final residual = 0.0005164356, No Iterations 1
Min/max T:300 328.4942
GAMG:  Solving for p_rgh, Initial residual = 0.04170058, Final residual = 0.0002108504, No Iterations 2
time step continuity errors : sum local = 6.465443e-05, global = 4.301351e-05, cumulative = -0.08815395
Min/max rho:1.058121 1.158621

Solving for solid region heater
DICPCG:  Solving for h, Initial residual = 0.009958012, Final residual = 0.0004380685, No Iterations 1
Min/max T:301.5792 500

Solving for solid region leftSolid
DICPCG:  Solving for h, Initial residual = 0.0602407, Final residual = 0.004685411, No Iterations 1
Min/max T:300.0139 320.3752

Solving for solid region rightSolid
DICPCG:  Solving for h, Initial residual = 0.05928553, Final residual = 0.004591869, No Iterations 1
Min/max T:300.0136 320.6708
ExecutionTime = 0.22 s  ClockTime = 0 s

Time = 20


Solving for fluid region bottomAir
DILUPBiCGStab:  Solving for Ux, Initial residual = 0.02572078, Final residual = 0.0002271254, No Iterations 1
DILUPBiCGStab:  Solving for Uy, Initial residual = 0.0482094, Final residual = 0.0006088954, No Iterations 1
DILUPBiCGStab:  Solving for Uz, Initial residual = 0.06744504, Final residual = 0.0006319632, No Iterations 1
DILUPBiCGStab:  Solving for h, Initial residual = 0.06193847, Final residual = 0.0007657291, No Iterations 1
Min/max T:300.0196 480.0059
GAMG:  Solving for p_rgh, Initial residual = 0.133055, Final residual = 0.001228404, No Iterations 3
time step continuity errors : sum local = 0.003066575, global = -1.089499e-17, cumulative = -0.08815395
Min/max rho:0.7358087 1.177227

Solving for fluid region topAir
DILUPBiCGStab:  Solving for Ux, Initial residual = 0.02037744, Final residual = 3.077527e-05, No Iterations 1
DILUPBiCGStab:  Solving for Uy, Initial residual = 0.08997223, Final residual = 0.000101795, No Iterations 1
DILUPBiCGStab:  Solving for Uz, Initial residual = 0.03841333, Final residual = 5.160718e-05, No Iterations 1
DILUPBiCGStab:  Solving for h, Initial residual = 0.04810269, Final residual = 0.0004654826, No Iterations 1
Min/max T:300 330.2655
GAMG:  Solving for p_rgh, Initial residual = 0.03917929, Final residual = 0.0001521442, No Iterations 2
time step continuity errors : sum local = 4.854428e-05, global = 3.799427e-05, cumulative = -0.08811596
Min/max rho:1.052446 1.158621

Solving for solid region heater
DICPCG:  Solving for h, Initial residual = 0.009387642, Final residual = 0.0004294433, No Iterations 1
Min/max T:301.8921 500

Solving for solid region leftSolid
DICPCG:  Solving for h, Initial residual = 0.05665018, Final residual = 0.004330633, No Iterations 1
Min/max T:300.0202 321.7473

Solving for solid region rightSolid
DICPCG:  Solving for h, Initial residual = 0.05587749, Final residual = 0.004256043, No Iterations 1
Min/max T:300.0196 322.0264
ExecutionTime = 0.22 s  ClockTime = 0 s

Time = 21


Solving for fluid region bottomAir
DILUPBiCGStab:  Solving for Ux, Initial residual = 0.02562492, Final residual = 0.0002222577, No Iterations 1
DILUPBiCGStab:  Solving for Uy, Initial residual = 0.04785464, Final residual = 0.000578254, No Iterations 1
DILUPBiCGStab:  Solving for Uz, Initial residual = 0.06753018, Final residual = 0.000596768, No Iterations 1
DILUPBiCGStab:  Solving for h, Initial residual = 0.05932528, Final residual = 0.0007055556, No Iterations 1
Solving view factor equations for band : 0
Min/max T:300.0275 480.4874
GAMG:  Solving for p_rgh, Initial residual = 0.1293661, Final residual = 0.0005058226, No Iterations 4
time step continuity errors : sum local = 0.001287593, global = 2.677006e-18, cumulative = -0.08811596
Min/max rho:0.7358446 1.178434

Solving for fluid region topAir
DILUPBiCGStab:  Solving for Ux, Initial residual = 0.01889149, Final residual = 2.803586e-05, No Iterations 1
DILUPBiCGStab:  Solving for Uy, Initial residual = 0.08640123, Final residual = 9.57218e-05, No Iterations 1
DILUPBiCGStab:  Solving for Uz, Initial residual = 0.03823954, Final residual = 5.011972e-05, No Iterations 1
DILUPBiCGStab:  Solving for h, Initial residual = 0.04450608, Final residual = 0.0004247667, No Iterations 1
Solving view factor equations for band : 0
Min/max T:300 331.9517
GAMG:  Solving for p_rgh, Initial residual = 0.03713562, Final residual = 9.31505e-05, No Iterations 2
time step continuity errors : sum local = 3.093041e-05, global = 1.344635e-05, cumulative = -0.08810251
Min/max rho:1.0471 1.158621

Solving for solid region heater
DICPCG:  Solving for h, Initial residual = 0.008871237, Final residual = 0.0004204176, No Iterations 1
Min/max T:302.2315 500

Solving for solid region leftSolid
DICPCG:  Solving for h, Initial residual = 0.05348084, Final residual = 0.00401509, No Iterations 1
Min/max T:300.0285 323.0694

Solving for solid region rightSolid
DICPCG:  Solving for h, Initial residual = 0.05286225, Final residual = 0.003956453, No Iterations 1
Min/max T:300.0275 323.3329
ExecutionTime = 0.24 s  ClockTime = 0 s

Time = 22


Solving for fluid region bottomAir
DILUPBiCGStab:  Solving for Ux, Initial residual = 0.02524569, Final residual = 0.0002142402, No Iterations 1
DILUPBiCGStab:  Solving for Uy, Initial residual = 0.04726095, Final residual = 0.0005452003, No Iterations 1
DILUPBiCGStab:  Solving for Uz, Initial residual = 0.06604784, Final residual = 0.0005556626, No Iterations 1
DILUPBiCGStab:  Solving for h, Initial residual = 0.05712128, Final residual = 0.0006377239, No Iterations 1
Min/max T:300.0379 480.925
GAMG:  Solving for p_rgh, Initial residual = 0.1291, Final residual = 0.0005287585, No Iterations 4
time step continuity errors : sum local = 0.001335066, global = -4.895096e-18, cumulative = -0.08810251
Min/max rho:0.7359895 1.179699

Solving for fluid region topAir
DILUPBiCGStab:  Solving for Ux, Initial residual = 0.01750536, Final residual = 2.564169e-05, No Iterations 1
DILUPBiCGStab:  Solving for Uy, Initial residual = 0.08312308, Final residual = 9.050045e-05, No Iterations 1
DILUPBiCGStab:  Solving for Uz, Initial residual = 0.03778485, Final residual = 4.835867e-05, No Iterations 1
DILUPBiCGStab:  Solving for h, Initial residual = 0.04132984, Final residual = 0.0003921202, No Iterations 1
Min/max T:300 333.5552
GAMG:  Solving for p_rgh, Initial residual = 0.03561876, Final residual = 0.0001093744, No Iterations 2
time step continuity errors : sum local = 3.791177e-05, global = -1.560669e-05, cumulative = -0.08811812
Min/max rho:1.042066 1.158621

Solving for solid region heater
DICPCG:  Solving for h, Initial residual = 0.008405741, Final residual = 0.0004113476, No Iterations 1
Min/max T:302.5957 500

Solving for solid region leftSolid
DICPCG:  Solving for h, Initial residual = 0.05067884, Final residual = 0.003734483, No Iterations 1
Min/max T:300.0394 324.3417

Solving for solid region rightSolid
DICPCG:  Solving for h, Initial residual = 0.05019469, Final residual = 0.003689925, No Iterations 1
Min/max T:300.0378 324.5906
ExecutionTime = 0.24 s  ClockTime = 0 s

Time = 23


Solving for fluid region bottomAir
DILUPBiCGStab:  Solving for Ux, Initial residual = 0.0247878, Final residual = 0.0001976005, No Iterations 1
DILUPBiCGStab:  Solving for Uy, Initial residual = 0.04575211, Final residual = 0.0005098236, No Iterations 1
DILUPBiCGStab:  Solving for Uz, Initial residual = 0.06224988, Final residual = 0.0005064323, No Iterations 1
DILUPBiCGStab:  Solving for h, Initial residual = 0.05574462, Final residual = 0.0006014854, No Iterations 1
Min/max T:300.051 481.3249
GAMG:  Solving for p_rgh, Initial residual = 0.1232434, Final residual = 0.0005133826, No Iterations 4
time step continuity errors : sum local = 0.001319737, global = 4.232351e-18, cumulative = -0.08811812
Min/max rho:0.7362376 1.181026

Solving for fluid region topAir
DILUPBiCGStab:  Solving for Ux, Initial residual = 0.01621701, Final residual = 2.361098e-05, No Iterations 1
DILUPBiCGStab:  Solving for Uy, Initial residual = 0.07966385, Final residual = 8.560859e-05, No Iterations 1
DILUPBiCGStab:  Solving for Uz, Initial residual = 0.03709502, Final residual = 4.648396e-05, No Iterations 1
DILUPBiCGStab:  Solving for h, Initial residual = 0.03851339, Final residual = 0.0003665703, No Iterations 1
Min/max T:300 335.08
GAMG:  Solving for p_rgh, Initial residual = 0.03441942, Final residual = 0.0001189527, No Iterations 2
time step continuity errors : sum local = 4.312664e-05, global = -2.957755e-05, cumulative = -0.0881477
Min/max rho:1.037324 1.158621

Solving for solid region heater
DICPCG:  Solving for h, Initial residual = 0.007982814, Final residual = 0.0004024033, No Iterations 1
Min/max T:302.9827 500

Solving for solid region leftSolid
DICPCG:  Solving for h, Initial residual = 0.04819065, Final residual = 0.003484233, No Iterations 1
Min/max T:300.0531 325.5652

Solving for solid region rightSolid
DICPCG:  Solving for h, Initial residual = 0.04780988, Final residual = 0.00345145, No Iterations 1
Min/max T:300.051 325.8002
ExecutionTime = 0.25 s  ClockTime = 0 s

Time = 24


Solving for fluid region bottomAir
DILUPBiCGStab:  Solving for Ux, Initial residual = 0.02437717, Final residual = 0.0001839255, No Iterations 1
DILUPBiCGStab:  Solving for Uy, Initial residual = 0.04409113, Final residual = 0.0004845735, No Iterations 1
DILUPBiCGStab:  Solving for Uz, Initial residual = 0.05695898, Final residual = 0.000459563, No Iterations 1
DILUPBiCGStab:  Solving for h, Initial residual = 0.05467813, Final residual = 0.005444644, No Iterations 1
Solving view factor equations for band : 0
Min/max T:300.0676 481.6913
GAMG:  Solving for p_rgh, Initial residual = 0.1185248, Final residual = 0.0004799081, No Iterations 4
time step continuity errors : sum local = 0.001248031, global = 2.250371e-17, cumulative = -0.0881477
Min/max rho:0.7365642 1.182384

Solving for fluid region topAir
DILUPBiCGStab:  Solving for Ux, Initial residual = 0.01507072, Final residual = 2.189222e-05, No Iterations 1
DILUPBiCGStab:  Solving for Uy, Initial residual = 0.07598508, Final residual = 8.098783e-05, No Iterations 1
DILUPBiCGStab:  Solving for Uz, Initial residual = 0.03623143, Final residual = 4.451671e-05, No Iterations 1
DILUPBiCGStab:  Solving for h, Initial residual = 0.03600739, Final residual = 0.0003455389, No Iterations 1
Solving view factor equations for band : 0
Min/max T:300 336.5299
GAMG:  Solving for p_rgh, Initial residual = 0.03330984, Final residual = 0.000117993, No Iterations 2
time step continuity errors : sum local = 4.4798e-05, global = -3.016506e-05, cumulative = -0.08817786
Min/max rho:1.032855 1.158621

Solving for solid region heater
DICPCG:  Solving for h, Initial residual = 0.007595739, Final residual = 0.0003942838, No Iterations 1
Min/max T:303.3905 500

Solving for solid region leftSolid
DICPCG:  Solving for h, Initial residual = 0.04594373, Final residual = 0.003258406, No Iterations 1
Min/max T:300.07 326.7411

Solving for solid region rightSolid
DICPCG:  Solving for h, Initial residual = 0.04565454, Final residual = 0.00323712, No Iterations 1
Min/max T:300.0675 326.9631
ExecutionTime = 0.25 s  ClockTime = 0 s

Time = 25


Solving for fluid region bottomAir
DILUPBiCGStab:  Solving for Ux, Initial residual = 0.02401011, Final residual = 0.0001797083, No Iterations 1
DILUPBiCGStab:  Solving for Uy, Initial residual = 0.04341475, Final residual = 0.0004760388, No Iterations 1
DILUPBiCGStab:  Solving for Uz, Initial residual = 0.05047034, Final residual = 0.0004117218, No Iterations 1
DILUPBiCGStab:  Solving for h, Initial residual = 0.05459671, Final residual = 0.005396684, No Iterations 1
Min/max T:300.0881 482.0274
GAMG:  Solving for p_rgh, Initial residual = 0.1177698, Final residual = 0.0009709529, No Iterations 3
time step continuity errors : sum local = 0.002530802, global = 4.521165e-18, cumulative = -0.08817786
Min/max rho:0.7368779 1.183632

Solving for fluid region topAir
DILUPBiCGStab:  Solving for Ux, Initial residual = 0.01400446, Final residual = 2.037721e-05, No Iterations 1
DILUPBiCGStab:  Solving for Uy, Initial residual = 0.07212669, Final residual = 7.689974e-05, No Iterations 1
DILUPBiCGStab:  Solving for Uz, Initial residual = 0.03524597, Final residual = 4.261974e-05, No Iterations 1
DILUPBiCGStab:  Solving for h, Initial residual = 0.03377042, Final residual = 0.0003290573, No Iterations 1
Min/max T:300 337.9086
GAMG:  Solving for p_rgh, Initial residual = 0.03233853, Final residual = 0.0001060116, No Iterations 2
time step continuity errors : sum local = 4.20973e-05, global = -2.446692e-05, cumulative = -0.08820233
Min/max rho:1.028641 1.158621

Solving for solid region heater
DICPCG:  Solving for h, Initial residual = 0.007243591, Final residual = 0.0003866514, No Iterations 1
Min/max T:303.817 500

Solving for solid region leftSolid
DICPCG:  Solving for h, Initial residual = 0.04392284, Final residual = 0.00305543, No Iterations 1
Min/max T:300.0908 327.8709

Solving for solid region rightSolid
DICPCG:  Solving for h, Initial residual = 0.04371453, Final residual = 0.003045311, No Iterations 1
Min/max T:300.088 328.0808
ExecutionTime = 0.27 s  ClockTime = 0 s

Time = 26


Solving for fluid region bottomAir
DILUPBiCGStab:  Solving for Ux, Initial residual = 0.02386107, Final residual = 0.0001768077, No Iterations 1
DILUPBiCGStab:  Solving for Uy, Initial residual = 0.04094077, Final residual = 0.0004434523, No Iterations 1
DILUPBiCGStab:  Solving for Uz, Initial residual = 0.04511591, Final residual = 0.0003823925, No Iterations 1
DILUPBiCGStab:  Solving for h, Initial residual = 0.05488551, Final residual = 0.005366582, No Iterations 1
Min/max T:300.1132 482.3371
GAMG:  Solving for p_rgh, Initial residual = 0.1156665, Final residual = 0.0008129802, No Iterations 3
time step continuity errors : sum local = 0.002117181, global = -3.569328e-17, cumulative = -0.08820233
Min/max rho:0.7372453 1.184884

Solving for fluid region topAir
DILUPBiCGStab:  Solving for Ux, Initial residual = 0.01304578, Final residual = 1.899249e-05, No Iterations 1
DILUPBiCGStab:  Solving for Uy, Initial residual = 0.0683533, Final residual = 7.369541e-05, No Iterations 1
DILUPBiCGStab:  Solving for Uz, Initial residual = 0.0341654, Final residual = 4.086277e-05, No Iterations 1
DILUPBiCGStab:  Solving for h, Initial residual = 0.03176786, Final residual = 0.0003156933, No Iterations 1
Min/max T:300 339.2205
GAMG:  Solving for p_rgh, Initial residual = 0.0314183, Final residual = 9.656411e-05, No Iterations 2
time step continuity errors : sum local = 4.001238e-05, global = -1.922994e-05, cumulative = -0.08822156
Min/max rho:1.024662 1.158621

Solving for solid region heater
DICPCG:  Solving for h, Initial residual = 0.006920798, Final residual = 0.0003789317, No Iterations 1
Min/max T:304.2602 500

Solving for solid region leftSolid
DICPCG:  Solving for h, Initial residual = 0.04210764, Final residual = 0.002873267, No Iterations 1
Min/max T:300.1156 328.9567

Solving for solid region rightSolid
DICPCG:  Solving for h, Initial residual = 0.04195721, Final residual = 0.002873261, No Iterations 1
Min/max T:300.113 329.1552
ExecutionTime = 0.27 s  ClockTime = 0 s

Time = 27


Solving for fluid region bottomAir
DILUPBiCGStab:  Solving for Ux, Initial residual = 0.02347464, Final residual = 0.0001725507, No Iterations 1
DILUPBiCGStab:  Solving for Uy, Initial residual = 0.03653993, Final residual = 0.0003910785, No Iterations 1
DILUPBiCGStab:  Solving for Uz, Initial residual = 0.04094741, Final residual = 0.0003702809, No Iterations 1
DILUPBiCGStab:  Solving for h, Initial residual = 0.05482858, Final residual = 0.005320252, No Iterations 1
Solving view factor equations for band : 0
Min/max T:300.1435 482.623
GAMG:  Solving for p_rgh, Initial residual = 0.1122865, Final residual = 0.0006416964, No Iterations 3
time step continuity errors : sum local = 0.001680194, global = -1.57051e-17, cumulative = -0.08822156
Min/max rho:0.7376557 1.186127

Solving for fluid region topAir
DILUPBiCGStab:  Solving for Ux, Initial residual = 0.01219355, Final residual = 1.77204e-05, No Iterations 1
DILUPBiCGStab:  Solving for Uy, Initial residual = 0.06498814, Final residual = 7.067611e-05, No Iterations 1
DILUPBiCGStab:  Solving for Uz, Initial residual = 0.03299166, Final residual = 3.90923e-05, No Iterations 1
DILUPBiCGStab:  Solving for h, Initial residual = 0.02997053, Final residual = 0.0003053841, No Iterations 1
Solving view factor equations for band : 0
Min/max T:300 340.4695
GAMG:  Solving for p_rgh, Initial residual = 0.03050775, Final residual = 9.004452e-05, No Iterations 2
time step continuity errors : sum local = 3.884822e-05, global = -1.858667e-05, cumulative = -0.08824015
Min/max rho:1.020903 1.158621

Solving for solid region heater
DICPCG:  Solving for h, Initial residual = 0.006622827, Final residual = 0.0003710253, No Iterations 1
Min/max T:304.7182 500

Solving for solid region leftSolid
DICPCG:  Solving for h, Initial residual = 0.04045889, Final residual = 0.002708917, No Iterations 1
Min/max T:300.1449 330.0004

Solving for solid region rightSolid
DICPCG:  Solving for h, Initial residual = 0.04035611, Final residual = 0.002718235, No Iterations 1
Min/max T:300.1431 330.1882
ExecutionTime = 0.28 s  ClockTime = 0 s

Time = 28


Solving for fluid region bottomAir
DILUPBiCGStab:  Solving for Ux, Initial residual = 0.02235714, Final residual = 0.0001659191, No Iterations 1
DILUPBiCGStab:  Solving for Uy, Initial residual = 0.03141658, Final residual = 0.000328382, No Iterations 1
DILUPBiCGStab:  Solving for Uz, Initial residual = 0.03744745, Final residual = 0.0003543228, No Iterations 1
DILUPBiCGStab:  Solving for h, Initial residual = 0.05394135, Final residual = 0.005160963, No Iterations 1
Min/max T:300.1797 482.8872
GAMG:  Solving for p_rgh, Initial residual = 0.09890225, Final residual = 0.0006132559, No Iterations 3
time step continuity errors : sum local = 0.001626137, global = 2.427152e-17, cumulative = -0.08824015
Min/max rho:0.7381019 1.187351

Solving for fluid region topAir
DILUPBiCGStab:  Solving for Ux, Initial residual = 0.01140722, Final residual = 1.656652e-05, No Iterations 1
DILUPBiCGStab:  Solving for Uy, Initial residual = 0.06172614, Final residual = 6.823921e-05, No Iterations 1
DILUPBiCGStab:  Solving for Uz, Initial residual = 0.03175573, Final residual = 3.734368e-05, No Iterations 1
DILUPBiCGStab:  Solving for h, Initial residual = 0.02834827, Final residual = 0.0002968197, No Iterations 1
Min/max T:300 341.6593
GAMG:  Solving for p_rgh, Initial residual = 0.02961566, Final residual = 8.571736e-05, No Iterations 2
time step continuity errors : sum local = 3.845066e-05, global = -2.228136e-05, cumulative = -0.08826243
Min/max rho:1.017348 1.158621

Solving for solid region heater
DICPCG:  Solving for h, Initial residual = 0.006349781, Final residual = 0.0003634617, No Iterations 1
Min/max T:305.1891 500

Solving for solid region leftSolid
DICPCG:  Solving for h, Initial residual = 0.03896769, Final residual = 0.002561196, No Iterations 1
Min/max T:300.1791 331.0038

Solving for solid region rightSolid
DICPCG:  Solving for h, Initial residual = 0.03889302, Final residual = 0.002577855, No Iterations 1
Min/max T:300.1789 331.1818
ExecutionTime = 0.28 s  ClockTime = 1 s

Time = 29


Solving for fluid region bottomAir
DILUPBiCGStab:  Solving for Ux, Initial residual = 0.02082004, Final residual = 0.0001583659, No Iterations 1
DILUPBiCGStab:  Solving for Uy, Initial residual = 0.02682535, Final residual = 0.0002740243, No Iterations 1
DILUPBiCGStab:  Solving for Uz, Initial residual = 0.03456365, Final residual = 0.0003437119, No Iterations 1
DILUPBiCGStab:  Solving for h, Initial residual = 0.05187136, Final residual = 0.004895613, No Iterations 1
Min/max T:300.2198 483.1324
GAMG:  Solving for p_rgh, Initial residual = 0.08748894, Final residual = 0.0008134134, No Iterations 3
time step continuity errors : sum local = 0.002198603, global = -3.63053e-17, cumulative = -0.08826243
Min/max rho:0.7385793 1.188563

Solving for fluid region topAir
DILUPBiCGStab:  Solving for Ux, Initial residual = 0.01069422, Final residual = 1.55694e-05, No Iterations 1
DILUPBiCGStab:  Solving for Uy, Initial residual = 0.05884229, Final residual = 6.594035e-05, No Iterations 1
DILUPBiCGStab:  Solving for Uz, Initial residual = 0.03049249, Final residual = 3.578246e-05, No Iterations 1
DILUPBiCGStab:  Solving for h, Initial residual = 0.02688087, Final residual = 0.000289873, No Iterations 1
Min/max T:300 342.794
GAMG:  Solving for p_rgh, Initial residual = 0.02870022, Final residual = 8.330879e-05, No Iterations 2
time step continuity errors : sum local = 3.881641e-05, global = -2.733611e-05, cumulative = -0.08828976
Min/max rho:1.013981 1.158621

Solving for solid region heater
DICPCG:  Solving for h, Initial residual = 0.006097786, Final residual = 0.0003559846, No Iterations 1
Min/max T:305.6712 500

Solving for solid region leftSolid
DICPCG:  Solving for h, Initial residual = 0.03760478, Final residual = 0.002427382, No Iterations 1
Min/max T:300.2186 331.9693

Solving for solid region rightSolid
DICPCG:  Solving for h, Initial residual = 0.03754983, Final residual = 0.002449552, No Iterations 1
Min/max T:300.2207 332.1381
ExecutionTime = 0.3 s  ClockTime = 1 s

Time = 30


Solving for fluid region bottomAir
DILUPBiCGStab:  Solving for Ux, Initial residual = 0.01932979, Final residual = 0.0001489274, No Iterations 1
DILUPBiCGStab:  Solving for Uy, Initial residual = 0.02445383, Final residual = 0.0002612837, No Iterations 1
DILUPBiCGStab:  Solving for Uz, Initial residual = 0.03141057, Final residual = 0.0003257466, No Iterations 1
DILUPBiCGStab:  Solving for h, Initial residual = 0.04918626, Final residual = 0.004582963, No Iterations 1
Solving view factor equations for band : 0
Min/max T:300.2649 483.3603
GAMG:  Solving for p_rgh, Initial residual = 0.07992751, Final residual = 0.0003810636, No Iterations 4
time step continuity errors : sum local = 0.001036568, global = -1.663993e-17, cumulative = -0.08828976
Min/max rho:0.7390818 1.189754

Solving for fluid region topAir
DILUPBiCGStab:  Solving for Ux, Initial residual = 0.01003488, Final residual = 1.468579e-05, No Iterations 1
DILUPBiCGStab:  Solving for Uy, Initial residual = 0.05628661, Final residual = 6.387691e-05, No Iterations 1
DILUPBiCGStab:  Solving for Uz, Initial residual = 0.02927725, Final residual = 3.440968e-05, No Iterations 1
DILUPBiCGStab:  Solving for h, Initial residual = 0.02555228, Final residual = 0.0002849242, No Iterations 1
Solving view factor equations for band : 0
Min/max T:300 343.877
GAMG:  Solving for p_rgh, Initial residual = 0.02775712, Final residual = 8.278117e-05, No Iterations 2
time step continuity errors : sum local = 4.003064e-05, global = -3.104576e-05, cumulative = -0.08832081
Min/max rho:1.010787 1.158621

Solving for solid region heater
DICPCG:  Solving for h, Initial residual = 0.005863692, Final residual = 0.0003485307, No Iterations 1
Min/max T:306.1628 500

Solving for solid region leftSolid
DICPCG:  Solving for h, Initial residual = 0.03635054, Final residual = 0.002305559, No Iterations 1
Min/max T:300.2636 332.8986

Solving for solid region rightSolid
DICPCG:  Solving for h, Initial residual = 0.03631155, Final residual = 0.002331924, No Iterations 1
Min/max T:300.2686 333.0589
ExecutionTime = 0.3 s  ClockTime = 1 s

Time = 31


Solving for fluid region bottomAir
DILUPBiCGStab:  Solving for Ux, Initial residual = 0.01791374, Final residual = 0.000139989, No Iterations 1
DILUPBiCGStab:  Solving for Uy, Initial residual = 0.02398613, Final residual = 0.0002751172, No Iterations 1
DILUPBiCGStab:  Solving for Uz, Initial residual = 0.0289786, Final residual = 0.0003036496, No Iterations 1
DILUPBiCGStab:  Solving for h, Initial residual = 0.04640913, Final residual = 0.004303361, No Iterations 1
Min/max T:300.3159 483.5722
GAMG:  Solving for p_rgh, Initial residual = 0.07228957, Final residual = 0.0002936287, No Iterations 4
time step continuity errors : sum local = 0.0008251697, global = -1.833961e-17, cumulative = -0.08832081
Min/max rho:0.7396025 1.190912

Solving for fluid region topAir
DILUPBiCGStab:  Solving for Ux, Initial residual = 0.009435303, Final residual = 1.38836e-05, No Iterations 1
DILUPBiCGStab:  Solving for Uy, Initial residual = 0.0537514, Final residual = 6.189263e-05, No Iterations 1
DILUPBiCGStab:  Solving for Uz, Initial residual = 0.02809972, Final residual = 3.32315e-05, No Iterations 1
DILUPBiCGStab:  Solving for h, Initial residual = 0.0243455, Final residual = 0.0002811849, No Iterations 1
Min/max T:300 344.9115
GAMG:  Solving for p_rgh, Initial residual = 0.0268477, Final residual = 8.146935e-05, No Iterations 2
time step continuity errors : sum local = 4.084779e-05, global = -3.278827e-05, cumulative = -0.0883536
Min/max rho:1.007756 1.158621

Solving for solid region heater
DICPCG:  Solving for h, Initial residual = 0.005647935, Final residual = 0.0003416177, No Iterations 1
Min/max T:306.6624 500

Solving for solid region leftSolid
DICPCG:  Solving for h, Initial residual = 0.03519785, Final residual = 0.00219457, No Iterations 1
Min/max T:300.3144 333.7938

Solving for solid region rightSolid
DICPCG:  Solving for h, Initial residual = 0.03516849, Final residual = 0.002223914, No Iterations 1
Min/max T:300.3226 333.9463
ExecutionTime = 0.31 s  ClockTime = 1 s

Time = 32


Solving for fluid region bottomAir
DILUPBiCGStab:  Solving for Ux, Initial residual = 0.01669564, Final residual = 0.0001318621, No Iterations 1
DILUPBiCGStab:  Solving for Uy, Initial residual = 0.02428302, Final residual = 0.0002809406, No Iterations 1
DILUPBiCGStab:  Solving for Uz, Initial residual = 0.02786916, Final residual = 0.0002885162, No Iterations 1
DILUPBiCGStab:  Solving for h, Initial residual = 0.04413222, Final residual = 0.004156858, No Iterations 1
Min/max T:300.3728 483.7701
GAMG:  Solving for p_rgh, Initial residual = 0.06583092, Final residual = 0.0004783981, No Iterations 3
time step continuity errors : sum local = 0.001374798, global = 2.627715e-17, cumulative = -0.0883536
Min/max rho:0.7401398 1.192039

Solving for fluid region topAir
DILUPBiCGStab:  Solving for Ux, Initial residual = 0.00888389, Final residual = 1.314036e-05, No Iterations 1
DILUPBiCGStab:  Solving for Uy, Initial residual = 0.05131966, Final residual = 6.011431e-05, No Iterations 1
DILUPBiCGStab:  Solving for Uz, Initial residual = 0.02695633, Final residual = 3.218003e-05, No Iterations 1
DILUPBiCGStab:  Solving for h, Initial residual = 0.02324583, Final residual = 0.0002778523, No Iterations 1
Min/max T:300 345.9009
GAMG:  Solving for p_rgh, Initial residual = 0.02597506, Final residual = 7.911937e-05, No Iterations 2
time step continuity errors : sum local = 4.108321e-05, global = -3.347616e-05, cumulative = -0.08838707
Min/max rho:1.004873 1.158621

Solving for solid region heater
DICPCG:  Solving for h, Initial residual = 0.005447748, Final residual = 0.0003349127, No Iterations 1
Min/max T:307.1685 500

Solving for solid region leftSolid
DICPCG:  Solving for h, Initial residual = 0.03413888, Final residual = 0.00209378, No Iterations 1
Min/max T:300.3712 334.6569

Solving for solid region rightSolid
DICPCG:  Solving for h, Initial residual = 0.03411459, Final residual = 0.00212459, No Iterations 1
Min/max T:300.3828 334.802
ExecutionTime = 0.33 s  ClockTime = 1 s

Time = 33


Solving for fluid region bottomAir
DILUPBiCGStab:  Solving for Ux, Initial residual = 0.01578491, Final residual = 0.0001259544, No Iterations 1
DILUPBiCGStab:  Solving for Uy, Initial residual = 0.02398285, Final residual = 0.000276941, No Iterations 1
DILUPBiCGStab:  Solving for Uz, Initial residual = 0.02756344, Final residual = 0.0002785631, No Iterations 1
DILUPBiCGStab:  Solving for h, Initial residual = 0.04255965, Final residual = 0.004091348, No Iterations 1
Solving view factor equations for band : 0
Min/max T:300.4358 483.955
GAMG:  Solving for p_rgh, Initial residual = 0.06405189, Final residual = 0.0003482642, No Iterations 3
time step continuity errors : sum local = 0.001010289, global = 4.920591e-18, cumulative = -0.08838707
Min/max rho:0.7406993 1.193146

Solving for fluid region topAir
DILUPBiCGStab:  Solving for Ux, Initial residual = 0.008385977, Final residual = 1.246562e-05, No Iterations 1
DILUPBiCGStab:  Solving for Uy, Initial residual = 0.04906745, Final residual = 5.850518e-05, No Iterations 1
DILUPBiCGStab:  Solving for Uz, Initial residual = 0.02584793, Final residual = 3.127149e-05, No Iterations 1
DILUPBiCGStab:  Solving for h, Initial residual = 0.02224025, Final residual = 0.0002751071, No Iterations 1
Solving view factor equations for band : 0
Min/max T:300 346.8483
GAMG:  Solving for p_rgh, Initial residual = 0.02514322, Final residual = 7.707804e-05, No Iterations 2
time step continuity errors : sum local = 4.140126e-05, global = -3.424952e-05, cumulative = -0.08842132
Min/max rho:1.002128 1.158621

Solving for solid region heater
DICPCG:  Solving for h, Initial residual = 0.005260809, Final residual = 0.0003282135, No Iterations 1
Min/max T:307.68 500

Solving for solid region leftSolid
DICPCG:  Solving for h, Initial residual = 0.03315694, Final residual = 0.002000979, No Iterations 1
Min/max T:300.4338 335.4896

Solving for solid region rightSolid
DICPCG:  Solving for h, Initial residual = 0.03314324, Final residual = 0.002033047, No Iterations 1
Min/max T:300.4491 335.628
ExecutionTime = 0.35 s  ClockTime = 1 s

Time = 34


Solving for fluid region bottomAir
DILUPBiCGStab:  Solving for Ux, Initial residual = 0.01514357, Final residual = 0.0001213619, No Iterations 1
DILUPBiCGStab:  Solving for Uy, Initial residual = 0.02274006, Final residual = 0.0002600994, No Iterations 1
DILUPBiCGStab:  Solving for Uz, Initial residual = 0.02740716, Final residual = 0.0002685437, No Iterations 1
DILUPBiCGStab:  Solving for h, Initial residual = 0.04202516, Final residual = 0.004027513, No Iterations 1
Min/max T:300.5044 484.1281
GAMG:  Solving for p_rgh, Initial residual = 0.06366773, Final residual = 0.000307949, No Iterations 3
time step continuity errors : sum local = 0.000885574, global = -2.172196e-17, cumulative = -0.08842132
Min/max rho:0.7412855 1.194244

Solving for fluid region topAir
DILUPBiCGStab:  Solving for Ux, Initial residual = 0.007926799, Final residual = 1.184463e-05, No Iterations 1
DILUPBiCGStab:  Solving for Uy, Initial residual = 0.04702096, Final residual = 5.692587e-05, No Iterations 1
DILUPBiCGStab:  Solving for Uz, Initial residual = 0.02476375, Final residual = 3.048898e-05, No Iterations 1
DILUPBiCGStab:  Solving for h, Initial residual = 0.02131767, Final residual = 0.0002723817, No Iterations 1
Min/max T:300 347.756
GAMG:  Solving for p_rgh, Initial residual = 0.02434695, Final residual = 7.604625e-05, No Iterations 2
time step continuity errors : sum local = 4.220147e-05, global = -3.561324e-05, cumulative = -0.08845694
Min/max rho:0.9995126 1.158621

Solving for solid region heater
DICPCG:  Solving for h, Initial residual = 0.005087708, Final residual = 0.000321631, No Iterations 1
Min/max T:308.1956 500

Solving for solid region leftSolid
DICPCG:  Solving for h, Initial residual = 0.03225078, Final residual = 0.001916434, No Iterations 1
Min/max T:300.5023 336.2936

Solving for solid region rightSolid
DICPCG:  Solving for h, Initial residual = 0.0322439, Final residual = 0.001948468, No Iterations 1
Min/max T:300.5215 336.4258
ExecutionTime = 0.35 s  ClockTime = 1 s

Time = 35


Solving for fluid region bottomAir
DILUPBiCGStab:  Solving for Ux, Initial residual = 0.01440701, Final residual = 0.000116914, No Iterations 1
DILUPBiCGStab:  Solving for Uy, Initial residual = 0.0208912, Final residual = 0.0002362363, No Iterations 1
DILUPBiCGStab:  Solving for Uz, Initial residual = 0.0269724, Final residual = 0.0002555198, No Iterations 1
DILUPBiCGStab:  Solving for h, Initial residual = 0.04201966, Final residual = 0.003954962, No Iterations 1
Min/max T:300.5793 484.2906
GAMG:  Solving for p_rgh, Initial residual = 0.06172297, Final residual = 0.0003567679, No Iterations 3
time step continuity errors : sum local = 0.001002807, global = 7.674083e-18, cumulative = -0.08845694
Min/max rho:0.7418995 1.195337

Solving for fluid region topAir
DILUPBiCGStab:  Solving for Ux, Initial residual = 0.007516583, Final residual = 1.12695e-05, No Iterations 1
DILUPBiCGStab:  Solving for Uy, Initial residual = 0.04505416, Final residual = 5.546761e-05, No Iterations 1
DILUPBiCGStab:  Solving for Uz, Initial residual = 0.02371114, Final residual = 2.977665e-05, No Iterations 1
DILUPBiCGStab:  Solving for h, Initial residual = 0.02046788, Final residual = 0.0002698094, No Iterations 1
Min/max T:300 348.6271
GAMG:  Solving for p_rgh, Initial residual = 0.02357356, Final residual = 7.588067e-05, No Iterations 2
time step continuity errors : sum local = 4.345768e-05, global = -3.739604e-05, cumulative = -0.08849433
Min/max rho:0.997015 1.158621

Solving for solid region heater
DICPCG:  Solving for h, Initial residual = 0.004926367, Final residual = 0.0003155785, No Iterations 1
Min/max T:308.7143 500

Solving for solid region leftSolid
DICPCG:  Solving for h, Initial residual = 0.03141214, Final residual = 0.001838479, No Iterations 1
Min/max T:300.5771 337.0707

Solving for solid region rightSolid
DICPCG:  Solving for h, Initial residual = 0.0314129, Final residual = 0.001870258, No Iterations 1
Min/max T:300.6002 337.1972
ExecutionTime = 0.37 s  ClockTime = 1 s

Time = 36


Solving for fluid region bottomAir
DILUPBiCGStab:  Solving for Ux, Initial residual = 0.01370314, Final residual = 0.0001123345, No Iterations 1
DILUPBiCGStab:  Solving for Uy, Initial residual = 0.01883645, Final residual = 0.0002092209, No Iterations 1
DILUPBiCGStab:  Solving for Uz, Initial residual = 0.0260382, Final residual = 0.0002371694, No Iterations 1
DILUPBiCGStab:  Solving for h, Initial residual = 0.04185278, Final residual = 0.003833917, No Iterations 1
Solving view factor equations for band : 0
Min/max T:300.6608 484.4433
GAMG:  Solving for p_rgh, Initial residual = 0.05809286, Final residual = 0.0003923172, No Iterations 3
time step continuity errors : sum local = 0.001083944, global = 3.078982e-17, cumulative = -0.08849433
Min/max rho:0.7425388 1.19642

Solving for fluid region topAir
DILUPBiCGStab:  Solving for Ux, Initial residual = 0.0071432, Final residual = 1.074933e-05, No Iterations 1
DILUPBiCGStab:  Solving for Uy, Initial residual = 0.04320089, Final residual = 5.414839e-05, No Iterations 1
DILUPBiCGStab:  Solving for Uz, Initial residual = 0.0227016, Final residual = 2.914253e-05, No Iterations 1
DILUPBiCGStab:  Solving for h, Initial residual = 0.01968283, Final residual = 0.0002674389, No Iterations 1
Solving view factor equations for band : 0
Min/max T:300 349.464
GAMG:  Solving for p_rgh, Initial residual = 0.02283917, Final residual = 7.60242e-05, No Iterations 2
time step continuity errors : sum local = 4.489168e-05, global = -3.921557e-05, cumulative = -0.08853355
Min/max rho:0.9946275 1.158621

Solving for solid region heater
DICPCG:  Solving for h, Initial residual = 0.004774978, Final residual = 0.0003096966, No Iterations 1
Min/max T:309.2352 500

Solving for solid region leftSolid
DICPCG:  Solving for h, Initial residual = 0.03062834, Final residual = 0.001767476, No Iterations 1
Min/max T:300.6585 337.8225

Solving for solid region rightSolid
DICPCG:  Solving for h, Initial residual = 0.03064057, Final residual = 0.00179755, No Iterations 1
Min/max T:300.6853 337.9436
ExecutionTime = 0.38 s  ClockTime = 1 s

Time = 37


Solving for fluid region bottomAir
DILUPBiCGStab:  Solving for Ux, Initial residual = 0.01311624, Final residual = 0.0001078288, No Iterations 1
DILUPBiCGStab:  Solving for Uy, Initial residual = 0.01693475, Final residual = 0.0001845608, No Iterations 1
DILUPBiCGStab:  Solving for Uz, Initial residual = 0.02488538, Final residual = 0.0002187233, No Iterations 1
DILUPBiCGStab:  Solving for h, Initial residual = 0.04151582, Final residual = 0.0037161, No Iterations 1
Min/max T:300.7489 484.587
GAMG:  Solving for p_rgh, Initial residual = 0.05370567, Final residual = 0.0004033476, No Iterations 3
time step continuity errors : sum local = 0.001101584, global = 5.893662e-18, cumulative = -0.08853355
Min/max rho:0.7431979 1.197486

Solving for fluid region topAir
DILUPBiCGStab:  Solving for Ux, Initial residual = 0.006801938, Final residual = 1.027783e-05, No Iterations 1
DILUPBiCGStab:  Solving for Uy, Initial residual = 0.04151344, Final residual = 5.284085e-05, No Iterations 1
DILUPBiCGStab:  Solving for Uz, Initial residual = 0.02173185, Final residual = 2.856299e-05, No Iterations 1
DILUPBiCGStab:  Solving for h, Initial residual = 0.0189532, Final residual = 0.0002650598, No Iterations 1
Min/max T:300 350.2685
GAMG:  Solving for p_rgh, Initial residual = 0.02213569, Final residual = 7.603462e-05, No Iterations 2
time step continuity errors : sum local = 4.625235e-05, global = -4.086774e-05, cumulative = -0.08857442
[...]
Min/max rho:1.097299 1.170397

Solving for fluid region topAir
DILUPBiCGStab:  Solving for Ux, Initial residual = 1.326915e-05, Final residual = 1.11676e-07, No Iterations 1
DILUPBiCGStab:  Solving for Uy, Initial residual = 1.826193e-05, Final residual = 1.209328e-07, No Iterations 1
DILUPBiCGStab:  Solving for Uz, Initial residual = 1.134351e-05, Final residual = 1.259076e-07, No Iterations 1
DILUPBiCGStab:  Solving for h, Initial residual = 1.244406e-05, Final residual = 7.672872e-07, No Iterations 1
Min/max T:300 479.1553
GAMG:  Solving for p_rgh, Initial residual = 2.893003e-05, Final residual = 2.243364e-07, No Iterations 3
time step continuity errors : sum local = 1.439481e-06, global = -6.227889e-07, cumulative = -0.1135871
Min/max rho:0.7254152 1.158622

Solving for solid region heater
DICPCG:  Solving for h, Initial residual = 0.0001404222, Final residual = 1.038407e-05, No Iterations 1
Min/max T:471.9742 500

Solving for solid region leftSolid
DICPCG:  Solving for h, Initial residual = 0.001058251, Final residual = 3.754477e-05, No Iterations 1
Min/max T:466.8568 476.902

Solving for solid region rightSolid
DICPCG:  Solving for h, Initial residual = 0.001355451, Final residual = 4.726274e-05, No Iterations 1
Min/max T:468.6743 477.2107
ExecutionTime = 18.53 s  ClockTime = 19 s

Time = 1992


Solving for fluid region bottomAir
DILUPBiCGStab:  Solving for Ux, Initial residual = 3.898087e-05, Final residual = 2.757777e-07, No Iterations 1
DILUPBiCGStab:  Solving for Uy, Initial residual = 5.19633e-05, Final residual = 4.191959e-07, No Iterations 1
DILUPBiCGStab:  Solving for Uz, Initial residual = 8.186527e-05, Final residual = 6.056305e-07, No Iterations 1
DILUPBiCGStab:  Solving for h, Initial residual = 0.00116019, Final residual = 7.302662e-05, No Iterations 1
Solving view factor equations for band : 0
Min/max T:466.9246 498.0264
GAMG:  Solving for p_rgh, Initial residual = 9.267778e-05, Final residual = 5.365204e-07, No Iterations 3
time step continuity errors : sum local = 5.877757e-07, global = 3.58652e-19, cumulative = -0.1135871
Min/max rho:1.097308 1.170396

Solving for fluid region topAir
DILUPBiCGStab:  Solving for Ux, Initial residual = 1.323688e-05, Final residual = 1.114047e-07, No Iterations 1
DILUPBiCGStab:  Solving for Uy, Initial residual = 1.822425e-05, Final residual = 1.206597e-07, No Iterations 1
DILUPBiCGStab:  Solving for Uz, Initial residual = 1.131574e-05, Final residual = 1.256236e-07, No Iterations 1
DILUPBiCGStab:  Solving for h, Initial residual = 1.241552e-05, Final residual = 7.655447e-07, No Iterations 1
Solving view factor equations for band : 0
Min/max T:300 479.1583
GAMG:  Solving for p_rgh, Initial residual = 2.886442e-05, Final residual = 2.239428e-07, No Iterations 3
time step continuity errors : sum local = 1.436737e-06, global = -6.219336e-07, cumulative = -0.1135877
Min/max rho:0.7254106 1.158622

Solving for solid region heater
DICPCG:  Solving for h, Initial residual = 0.0001401213, Final residual = 1.036229e-05, No Iterations 1
Min/max T:471.9782 500

Solving for solid region leftSolid
DICPCG:  Solving for h, Initial residual = 0.001055629, Final residual = 3.744882e-05, No Iterations 1
Min/max T:466.8613 476.9054

Solving for solid region rightSolid
DICPCG:  Solving for h, Initial residual = 0.001352161, Final residual = 4.714176e-05, No Iterations 1
Min/max T:468.6789 477.214
ExecutionTime = 18.55 s  ClockTime = 19 s

Time = 1993


Solving for fluid region bottomAir
DILUPBiCGStab:  Solving for Ux, Initial residual = 3.889465e-05, Final residual = 2.751701e-07, No Iterations 1
DILUPBiCGStab:  Solving for Uy, Initial residual = 5.185004e-05, Final residual = 4.183031e-07, No Iterations 1
DILUPBiCGStab:  Solving for Uz, Initial residual = 8.168726e-05, Final residual = 6.042563e-07, No Iterations 1
DILUPBiCGStab:  Solving for h, Initial residual = 0.001157613, Final residual = 7.286192e-05, No Iterations 1
Min/max T:466.9291 498.0267
GAMG:  Solving for p_rgh, Initial residual = 9.248442e-05, Final residual = 5.326603e-07, No Iterations 3
time step continuity errors : sum local = 5.790867e-07, global = -1.067491e-18, cumulative = -0.1135877
Min/max rho:1.097317 1.170395

Solving for fluid region topAir
DILUPBiCGStab:  Solving for Ux, Initial residual = 1.32043e-05, Final residual = 1.1114e-07, No Iterations 1
DILUPBiCGStab:  Solving for Uy, Initial residual = 1.818235e-05, Final residual = 1.203849e-07, No Iterations 1
DILUPBiCGStab:  Solving for Uz, Initial residual = 1.128856e-05, Final residual = 1.253455e-07, No Iterations 1
DILUPBiCGStab:  Solving for h, Initial residual = 1.238593e-05, Final residual = 7.637842e-07, No Iterations 1
Min/max T:300 479.1614
GAMG:  Solving for p_rgh, Initial residual = 2.879949e-05, Final residual = 2.233265e-07, No Iterations 3
time step continuity errors : sum local = 1.432521e-06, global = -6.196115e-07, cumulative = -0.1135883
Min/max rho:0.7254061 1.158622

Solving for solid region heater
DICPCG:  Solving for h, Initial residual = 0.0001398112, Final residual = 1.033883e-05, No Iterations 1
Min/max T:471.9822 500

Solving for solid region leftSolid
DICPCG:  Solving for h, Initial residual = 0.001053444, Final residual = 3.737384e-05, No Iterations 1
Min/max T:466.8658 476.9087

Solving for solid region rightSolid
DICPCG:  Solving for h, Initial residual = 0.001349403, Final residual = 4.705063e-05, No Iterations 1
Min/max T:468.6834 477.2173
ExecutionTime = 18.55 s  ClockTime = 19 s

Time = 1994


Solving for fluid region bottomAir
DILUPBiCGStab:  Solving for Ux, Initial residual = 3.880113e-05, Final residual = 2.744929e-07, No Iterations 1
DILUPBiCGStab:  Solving for Uy, Initial residual = 5.173812e-05, Final residual = 4.173998e-07, No Iterations 1
DILUPBiCGStab:  Solving for Uz, Initial residual = 8.146582e-05, Final residual = 6.025549e-07, No Iterations 1
DILUPBiCGStab:  Solving for h, Initial residual = 0.001155048, Final residual = 7.269988e-05, No Iterations 1
Min/max T:466.9336 498.027
GAMG:  Solving for p_rgh, Initial residual = 9.227109e-05, Final residual = 5.305722e-07, No Iterations 3
time step continuity errors : sum local = 5.891761e-07, global = -1.729456e-18, cumulative = -0.1135883
Min/max rho:1.097326 1.170394

Solving for fluid region topAir
DILUPBiCGStab:  Solving for Ux, Initial residual = 1.317281e-05, Final residual = 1.108716e-07, No Iterations 1
DILUPBiCGStab:  Solving for Uy, Initial residual = 1.813137e-05, Final residual = 1.20103e-07, No Iterations 1
DILUPBiCGStab:  Solving for Uz, Initial residual = 1.126102e-05, Final residual = 1.250699e-07, No Iterations 1
DILUPBiCGStab:  Solving for h, Initial residual = 1.235721e-05, Final residual = 7.620236e-07, No Iterations 1
Min/max T:300 479.1644
GAMG:  Solving for p_rgh, Initial residual = 2.87326e-05, Final residual = 2.228119e-07, No Iterations 3
time step continuity errors : sum local = 1.430215e-06, global = -6.1874e-07, cumulative = -0.113589
Min/max rho:0.7254015 1.158622

Solving for solid region heater
DICPCG:  Solving for h, Initial residual = 0.0001395068, Final residual = 1.031638e-05, No Iterations 1
Min/max T:471.9862 500

Solving for solid region leftSolid
DICPCG:  Solving for h, Initial residual = 0.001051261, Final residual = 3.729679e-05, No Iterations 1
Min/max T:466.8703 476.912

Solving for solid region rightSolid
DICPCG:  Solving for h, Initial residual = 0.001346646, Final residual = 4.695575e-05, No Iterations 1
Min/max T:468.6879 477.2207
ExecutionTime = 18.57 s  ClockTime = 19 s

Time = 1995


Solving for fluid region bottomAir
DILUPBiCGStab:  Solving for Ux, Initial residual = 3.872556e-05, Final residual = 2.739686e-07, No Iterations 1
DILUPBiCGStab:  Solving for Uy, Initial residual = 5.162293e-05, Final residual = 4.164549e-07, No Iterations 1
DILUPBiCGStab:  Solving for Uz, Initial residual = 8.131794e-05, Final residual = 6.014092e-07, No Iterations 1
DILUPBiCGStab:  Solving for h, Initial residual = 0.001152499, Final residual = 7.254001e-05, No Iterations 1
Solving view factor equations for band : 0
Min/max T:466.9381 498.0272
GAMG:  Solving for p_rgh, Initial residual = 9.207918e-05, Final residual = 5.375194e-07, No Iterations 3
time step continuity errors : sum local = 5.871514e-07, global = 6.32519e-19, cumulative = -0.113589
Min/max rho:1.097335 1.170393

Solving for fluid region topAir
DILUPBiCGStab:  Solving for Ux, Initial residual = 1.314031e-05, Final residual = 1.1061e-07, No Iterations 1
DILUPBiCGStab:  Solving for Uy, Initial residual = 1.809427e-05, Final residual = 1.198382e-07, No Iterations 1
DILUPBiCGStab:  Solving for Uz, Initial residual = 1.123421e-05, Final residual = 1.247929e-07, No Iterations 1
DILUPBiCGStab:  Solving for h, Initial residual = 1.232881e-05, Final residual = 7.602839e-07, No Iterations 1
Solving view factor equations for band : 0
Min/max T:300 479.1674
GAMG:  Solving for p_rgh, Initial residual = 2.866756e-05, Final residual = 2.224328e-07, No Iterations 3
time step continuity errors : sum local = 1.427102e-06, global = -6.17388e-07, cumulative = -0.1135896
Min/max rho:0.7253969 1.158622

Solving for solid region heater
DICPCG:  Solving for h, Initial residual = 0.0001392078, Final residual = 1.029474e-05, No Iterations 1
Min/max T:471.9902 500

Solving for solid region leftSolid
DICPCG:  Solving for h, Initial residual = 0.001048655, Final residual = 3.720144e-05, No Iterations 1
Min/max T:466.8748 476.9153

Solving for solid region rightSolid
DICPCG:  Solving for h, Initial residual = 0.001343377, Final residual = 4.683551e-05, No Iterations 1
Min/max T:468.6925 477.224
ExecutionTime = 18.57 s  ClockTime = 19 s

Time = 1996


Solving for fluid region bottomAir
DILUPBiCGStab:  Solving for Ux, Initial residual = 3.864455e-05, Final residual = 2.733927e-07, No Iterations 1
DILUPBiCGStab:  Solving for Uy, Initial residual = 5.150563e-05, Final residual = 4.154838e-07, No Iterations 1
DILUPBiCGStab:  Solving for Uz, Initial residual = 8.115504e-05, Final residual = 6.003116e-07, No Iterations 1
DILUPBiCGStab:  Solving for h, Initial residual = 0.00114994, Final residual = 7.237631e-05, No Iterations 1
Min/max T:466.9426 498.0275
GAMG:  Solving for p_rgh, Initial residual = 9.188437e-05, Final residual = 5.305422e-07, No Iterations 3
time step continuity errors : sum local = 5.802339e-07, global = -1.116829e-18, cumulative = -0.1135896
Min/max rho:1.097344 1.170392

Solving for fluid region topAir
DILUPBiCGStab:  Solving for Ux, Initial residual = 1.310846e-05, Final residual = 1.103493e-07, No Iterations 1
DILUPBiCGStab:  Solving for Uy, Initial residual = 1.80528e-05, Final residual = 1.195705e-07, No Iterations 1
DILUPBiCGStab:  Solving for Uz, Initial residual = 1.120699e-05, Final residual = 1.245213e-07, No Iterations 1
DILUPBiCGStab:  Solving for h, Initial residual = 1.229934e-05, Final residual = 7.585183e-07, No Iterations 1
Min/max T:300 479.1704
GAMG:  Solving for p_rgh, Initial residual = 2.860398e-05, Final residual = 2.2178e-07, No Iterations 3
time step continuity errors : sum local = 1.424067e-06, global = -6.158745e-07, cumulative = -0.1135902
Min/max rho:0.7253924 1.158622

Solving for solid region heater
DICPCG:  Solving for h, Initial residual = 0.0001388995, Final residual = 1.027142e-05, No Iterations 1
Min/max T:471.9941 500

Solving for solid region leftSolid
DICPCG:  Solving for h, Initial residual = 0.001046485, Final residual = 3.712693e-05, No Iterations 1
Min/max T:466.8793 476.9185

Solving for solid region rightSolid
DICPCG:  Solving for h, Initial residual = 0.001340635, Final residual = 4.674492e-05, No Iterations 1
Min/max T:468.697 477.2272
ExecutionTime = 18.59 s  ClockTime = 19 s

Time = 1997


Solving for fluid region bottomAir
DILUPBiCGStab:  Solving for Ux, Initial residual = 3.854805e-05, Final residual = 2.727013e-07, No Iterations 1
DILUPBiCGStab:  Solving for Uy, Initial residual = 5.139973e-05, Final residual = 4.146426e-07, No Iterations 1
DILUPBiCGStab:  Solving for Uz, Initial residual = 8.093309e-05, Final residual = 5.986153e-07, No Iterations 1
DILUPBiCGStab:  Solving for h, Initial residual = 0.001147391, Final residual = 7.221547e-05, No Iterations 1
Min/max T:466.947 498.0278
GAMG:  Solving for p_rgh, Initial residual = 9.166555e-05, Final residual = 5.302259e-07, No Iterations 3
time step continuity errors : sum local = 5.799103e-07, global = 1.351657e-18, cumulative = -0.1135902
Min/max rho:1.097353 1.170391

Solving for fluid region topAir
DILUPBiCGStab:  Solving for Ux, Initial residual = 1.307679e-05, Final residual = 1.100832e-07, No Iterations 1
DILUPBiCGStab:  Solving for Uy, Initial residual = 1.800183e-05, Final residual = 1.192866e-07, No Iterations 1
DILUPBiCGStab:  Solving for Uz, Initial residual = 1.117991e-05, Final residual = 1.242497e-07, No Iterations 1
DILUPBiCGStab:  Solving for h, Initial residual = 1.227078e-05, Final residual = 7.567673e-07, No Iterations 1
Min/max T:300 479.1734
GAMG:  Solving for p_rgh, Initial residual = 2.853737e-05, Final residual = 2.214205e-07, No Iterations 3
time step continuity errors : sum local = 1.42055e-06, global = -6.148116e-07, cumulative = -0.1135908
Min/max rho:0.7253878 1.158622

Solving for solid region heater
DICPCG:  Solving for h, Initial residual = 0.000138597, Final residual = 1.02491e-05, No Iterations 1
Min/max T:471.9981 500

Solving for solid region leftSolid
DICPCG:  Solving for h, Initial residual = 0.001044315, Final residual = 3.705036e-05, No Iterations 1
Min/max T:466.8838 476.9218

Solving for solid region rightSolid
DICPCG:  Solving for h, Initial residual = 0.001337895, Final residual = 4.66506e-05, No Iterations 1
Min/max T:468.7015 477.2305
ExecutionTime = 18.59 s  ClockTime = 19 s

Time = 1998


Solving for fluid region bottomAir
DILUPBiCGStab:  Solving for Ux, Initial residual = 3.846912e-05, Final residual = 2.721465e-07, No Iterations 1
DILUPBiCGStab:  Solving for Uy, Initial residual = 5.128274e-05, Final residual = 4.137213e-07, No Iterations 1
DILUPBiCGStab:  Solving for Uz, Initial residual = 8.078235e-05, Final residual = 5.974186e-07, No Iterations 1
DILUPBiCGStab:  Solving for h, Initial residual = 0.001144857, Final residual = 7.205659e-05, No Iterations 1
Solving view factor equations for band : 0
Min/max T:466.9515 498.0281
GAMG:  Solving for p_rgh, Initial residual = 9.14651e-05, Final residual = 5.285072e-07, No Iterations 3
time step continuity errors : sum local = 5.720864e-07, global = 2.300668e-18, cumulative = -0.1135908
Min/max rho:1.097362 1.17039

Solving for fluid region topAir
DILUPBiCGStab:  Solving for Ux, Initial residual = 1.304501e-05, Final residual = 1.098209e-07, No Iterations 1
DILUPBiCGStab:  Solving for Uy, Initial residual = 1.79649e-05, Final residual = 1.190217e-07, No Iterations 1
DILUPBiCGStab:  Solving for Uz, Initial residual = 1.115255e-05, Final residual = 1.239758e-07, No Iterations 1
DILUPBiCGStab:  Solving for h, Initial residual = 1.224253e-05, Final residual = 7.550295e-07, No Iterations 1
Solving view factor equations for band : 0
Min/max T:300 479.1764
GAMG:  Solving for p_rgh, Initial residual = 2.84731e-05, Final residual = 2.209354e-07, No Iterations 3
time step continuity errors : sum local = 1.416909e-06, global = -6.132495e-07, cumulative = -0.1135914
Min/max rho:0.7253833 1.158622

Solving for solid region heater
DICPCG:  Solving for h, Initial residual = 0.0001382998, Final residual = 1.022759e-05, No Iterations 1
Min/max T:472.002 500

Solving for solid region leftSolid
DICPCG:  Solving for h, Initial residual = 0.001041726, Final residual = 3.695561e-05, No Iterations 1
Min/max T:466.8882 476.9251

Solving for solid region rightSolid
DICPCG:  Solving for h, Initial residual = 0.001334646, Final residual = 4.65311e-05, No Iterations 1
Min/max T:468.706 477.2338
ExecutionTime = 18.6 s  ClockTime = 19 s

Time = 1999


Solving for fluid region bottomAir
DILUPBiCGStab:  Solving for Ux, Initial residual = 3.838581e-05, Final residual = 2.715569e-07, No Iterations 1
DILUPBiCGStab:  Solving for Uy, Initial residual = 5.117237e-05, Final residual = 4.128496e-07, No Iterations 1
DILUPBiCGStab:  Solving for Uz, Initial residual = 8.060626e-05, Final residual = 5.960705e-07, No Iterations 1
DILUPBiCGStab:  Solving for h, Initial residual = 0.001142313, Final residual = 7.189393e-05, No Iterations 1
Min/max T:466.956 498.0284
GAMG:  Solving for p_rgh, Initial residual = 9.128789e-05, Final residual = 5.259731e-07, No Iterations 3
time step continuity errors : sum local = 5.776464e-07, global = 8.222722e-18, cumulative = -0.1135914
Min/max rho:1.097371 1.170389

Solving for fluid region topAir
DILUPBiCGStab:  Solving for Ux, Initial residual = 1.301344e-05, Final residual = 1.095563e-07, No Iterations 1
DILUPBiCGStab:  Solving for Uy, Initial residual = 1.792358e-05, Final residual = 1.187477e-07, No Iterations 1
DILUPBiCGStab:  Solving for Uz, Initial residual = 1.112546e-05, Final residual = 1.237029e-07, No Iterations 1
DILUPBiCGStab:  Solving for h, Initial residual = 1.22132e-05, Final residual = 7.532597e-07, No Iterations 1
Min/max T:300 479.1794
GAMG:  Solving for p_rgh, Initial residual = 2.840921e-05, Final residual = 2.20398e-07, No Iterations 3
time step continuity errors : sum local = 1.414656e-06, global = -6.118591e-07, cumulative = -0.113592
Min/max rho:0.7253788 1.158622

Solving for solid region heater
DICPCG:  Solving for h, Initial residual = 0.0001379934, Final residual = 1.020441e-05, No Iterations 1
Min/max T:472.006 500

Solving for solid region leftSolid
DICPCG:  Solving for h, Initial residual = 0.001039568, Final residual = 3.688156e-05, No Iterations 1
Min/max T:466.8927 476.9284

Solving for solid region rightSolid
DICPCG:  Solving for h, Initial residual = 0.001331921, Final residual = 4.644105e-05, No Iterations 1
Min/max T:468.7105 477.2371
ExecutionTime = 18.6 s  ClockTime = 19 s

Time = 2000


Solving for fluid region bottomAir
DILUPBiCGStab:  Solving for Ux, Initial residual = 3.829841e-05, Final residual = 2.709541e-07, No Iterations 1
DILUPBiCGStab:  Solving for Uy, Initial residual = 5.10552e-05, Final residual = 4.118502e-07, No Iterations 1
DILUPBiCGStab:  Solving for Uz, Initial residual = 8.039994e-05, Final residual = 5.945702e-07, No Iterations 1
DILUPBiCGStab:  Solving for h, Initial residual = 0.001139781, Final residual = 7.173412e-05, No Iterations 1
Min/max T:466.9604 498.0287
GAMG:  Solving for p_rgh, Initial residual = 9.106383e-05, Final residual = 5.258943e-07, No Iterations 3
time step continuity errors : sum local = 5.763295e-07, global = -2.598354e-18, cumulative = -0.113592
Min/max rho:1.097379 1.170388

Solving for fluid region topAir
DILUPBiCGStab:  Solving for Ux, Initial residual = 1.298139e-05, Final residual = 1.09295e-07, No Iterations 1
DILUPBiCGStab:  Solving for Uy, Initial residual = 1.787306e-05, Final residual = 1.184606e-07, No Iterations 1
DILUPBiCGStab:  Solving for Uz, Initial residual = 1.109816e-05, Final residual = 1.234278e-07, No Iterations 1
DILUPBiCGStab:  Solving for h, Initial residual = 1.218486e-05, Final residual = 7.515181e-07, No Iterations 1
Min/max T:300 479.1823
GAMG:  Solving for p_rgh, Initial residual = 2.834254e-05, Final residual = 2.199751e-07, No Iterations 3
time step continuity errors : sum local = 1.411344e-06, global = -6.102562e-07, cumulative = -0.1135926
Min/max rho:0.7253743 1.158622

Solving for solid region heater
DICPCG:  Solving for h, Initial residual = 0.0001376928, Final residual = 1.018224e-05, No Iterations 1
Min/max T:472.0099 500

Solving for solid region leftSolid
DICPCG:  Solving for h, Initial residual = 0.001037413, Final residual = 3.680547e-05, No Iterations 1
Min/max T:466.8971 476.9316

Solving for solid region rightSolid
DICPCG:  Solving for h, Initial residual = 0.001329197, Final residual = 4.634731e-05, No Iterations 1
Min/max T:468.715 477.2403
ExecutionTime = 18.62 s  ClockTime = 19 s

End

