/*---------------------------------------------------------------------------*\
| =========                 |                                                 |
| \\      /  F ield         | OpenFOAM: The Open Source CFD Toolbox           |
|  \\    /   O peration     | Version:  v1906                                 |
|   \\  /    A nd           | Web:      www.OpenFOAM.com                      |
|    \\/     M anipulation  |                                                 |
\*---------------------------------------------------------------------------*/
Build  : v1906 OPENFOAM=1906
Arch   : "LSB;label=32;scalar=64"
Exec   : buoyantPimpleFoam
Date   : Oct 15 2019
Time   : 15:34:23
Host   : DESKTOP-9S60IA4
PID    : 2587
I/O    : uncollated
Case   : /home/theodore_ong/GitHub_software/OpenFoam_heatTrf_YouTube/buoyantPimpleFoam_timevaryingBC/fine_timevaryingCavityFoam
nProcs : 1
trapFpe: Floating point exception trapping enabled (FOAM_SIGFPE).
fileModificationChecking : Monitoring run-time modified files using timeStampMaster (fileModificationSkew 10)
allowSystemOperations : Allowing user-supplied system call operations

// * * * * * * * * * * * * * * * * * * * * * * * * * * * * * * * * * * * * * //
Create time

Create mesh for time = 0


PIMPLE: Operating solver in PISO mode

Reading thermophysical properties

Selecting thermodynamics package 
{
    type            heRhoThermo;
    mixture         pureMixture;
    transport       const;
    thermo          hConst;
    equationOfState perfectGas;
    specie          specie;
    energy          sensibleEnthalpy;
}

Reading field U

Reading/calculating face flux field phi

Creating turbulence model

Selecting turbulence model type RAS
Selecting RAS turbulence model kOmegaSST
Selecting patchDistMethod meshWave
RAS
{
    RASModel        kOmegaSST;
    turbulence      on;
    printCoeffs     on;
    alphaK1         0.85;
    alphaK2         1;
    alphaOmega1     0.5;
    alphaOmega2     0.856;
    gamma1          0.555556;
    gamma2          0.44;
    beta1           0.075;
    beta2           0.0828;
    betaStar        0.09;
    a1              0.31;
    b1              1;
    c1              10;
    F3              false;
    decayControl    false;
    kInf            0;
    omegaInf        0;
}


Reading g

Reading hRef
Calculating field g.h

Reading field p_rgh

Creating field dpdt

Creating field kinetic energy K

No MRF models present

Radiation model not active: radiationProperties not found
Selecting radiationModel none
No finite volume options present
Courant Number mean: 0 max: 0

Starting time loop

Courant Number mean: 0 max: 0
deltaT = 0.0120482
Time = 0.0120482

diagonal:  Solving for rho, Initial residual = 0, Final residual = 0, No Iterations 0
PIMPLE: iteration 1
DICPCG:  Solving for p_rgh, Initial residual = 0.0866021, Final residual = 0.000791605, No Iterations 168
diagonal:  Solving for rho, Initial residual = 0, Final residual = 0, No Iterations 0
time step continuity errors : sum local = 2.19424e-05, global = 5.40231e-13, cumulative = 5.40231e-13
DICPCG:  Solving for p_rgh, Initial residual = 0.0818665, Final residual = 9.65299e-08, No Iterations 263
diagonal:  Solving for rho, Initial residual = 0, Final residual = 0, No Iterations 0
time step continuity errors : sum local = 3.78657e-05, global = 5.45105e-13, cumulative = 1.08534e-12
ExecutionTime = 3.66 s  ClockTime = 8 s

Courant Number mean: 0.00418252 max: 1.24345
deltaT = 0.0048429
Time = 0.0168911

diagonal:  Solving for rho, Initial residual = 0, Final residual = 0, No Iterations 0
PIMPLE: iteration 1
DICPCG:  Solving for p_rgh, Initial residual = 0.119849, Final residual = 0.00114289, No Iterations 176
diagonal:  Solving for rho, Initial residual = 0, Final residual = 0, No Iterations 0
time step continuity errors : sum local = 4.30068e-05, global = -3.15311e-15, cumulative = 1.08218e-12
DICPCG:  Solving for p_rgh, Initial residual = 0.114355, Final residual = 9.33854e-08, No Iterations 280
diagonal:  Solving for rho, Initial residual = 0, Final residual = 0, No Iterations 0
time step continuity errors : sum local = 3.74008e-05, global = -1.61876e-14, cumulative = 1.066e-12
ExecutionTime = 6.26 s  ClockTime = 11 s

Courant Number mean: 0.00252792 max: 1.29479
deltaT = 0.00186903
Time = 0.0187601

diagonal:  Solving for rho, Initial residual = 0, Final residual = 0, No Iterations 0
PIMPLE: iteration 1
DICPCG:  Solving for p_rgh, Initial residual = 0.41506, Final residual = 0.00413163, No Iterations 122
diagonal:  Solving for rho, Initial residual = 0, Final residual = 0, No Iterations 0
time step continuity errors : sum local = 1.50252e-05, global = 1.93785e-14, cumulative = 1.08537e-12
DICPCG:  Solving for p_rgh, Initial residual = 0.698377, Final residual = 9.98606e-08, No Iterations 252
diagonal:  Solving for rho, Initial residual = 0, Final residual = 0, No Iterations 0
time step continuity errors : sum local = 1.29926e-05, global = 1.04854e-14, cumulative = 1.09586e-12
ExecutionTime = 8.24 s  ClockTime = 13 s

Courant Number mean: 0.000926882 max: 0.4563
deltaT = 0.00204852
Time = 0.0208086

diagonal:  Solving for rho, Initial residual = 0, Final residual = 0, No Iterations 0
PIMPLE: iteration 1
DICPCG:  Solving for p_rgh, Initial residual = 0.612494, Final residual = 0.0060608, No Iterations 138
diagonal:  Solving for rho, Initial residual = 0, Final residual = 0, No Iterations 0
time step continuity errors : sum local = 1.21129e-05, global = 5.9899e-15, cumulative = 1.10185e-12
DICPCG:  Solving for p_rgh, Initial residual = 0.234915, Final residual = 9.70317e-08, No Iterations 246
diagonal:  Solving for rho, Initial residual = 0, Final residual = 0, No Iterations 0
time step continuity errors : sum local = 1.00121e-05, global = -3.27967e-15, cumulative = 1.09857e-12
ExecutionTime = 10.4 s  ClockTime = 15 s

Courant Number mean: 0.000772491 max: 0.355605
deltaT = 0.00233697
Time = 0.0231456

diagonal:  Solving for rho, Initial residual = 0, Final residual = 0, No Iterations 0
PIMPLE: iteration 1
DICPCG:  Solving for p_rgh, Initial residual = 0.145943, Final residual = 0.00143143, No Iterations 138
diagonal:  Solving for rho, Initial residual = 0, Final residual = 0, No Iterations 0
time step continuity errors : sum local = 6.91637e-06, global = 8.07884e-15, cumulative = 1.10665e-12
DICPCG:  Solving for p_rgh, Initial residual = 0.0677186, Final residual = 9.27785e-08, No Iterations 237
diagonal:  Solving for rho, Initial residual = 0, Final residual = 0, No Iterations 0
time step continuity errors : sum local = 5.13244e-06, global = 8.3538e-15, cumulative = 1.115e-12
ExecutionTime = 12.43 s  ClockTime = 17 s

Courant Number mean: 0.000455742 max: 0.186766
deltaT = 0.00280705
Time = 0.0259527

diagonal:  Solving for rho, Initial residual = 0, Final residual = 0, No Iterations 0
PIMPLE: iteration 1
DICPCG:  Solving for p_rgh, Initial residual = 0.0501024, Final residual = 0.00047817, No Iterations 145
diagonal:  Solving for rho, Initial residual = 0, Final residual = 0, No Iterations 0
time step continuity errors : sum local = 5.94647e-07, global = 1.0766e-14, cumulative = 1.12577e-12
DICPCG:  Solving for p_rgh, Initial residual = 0.0362123, Final residual = 9.54103e-08, No Iterations 249
diagonal:  Solving for rho, Initial residual = 0, Final residual = 0, No Iterations 0
time step continuity errors : sum local = 1.80504e-06, global = -8.24281e-15, cumulative = 1.11753e-12
ExecutionTime = 14.1 s  ClockTime = 19 s

Courant Number mean: 0.000315361 max: 0.0549115
deltaT = 0.00337041
Time = 0.0293231

diagonal:  Solving for rho, Initial residual = 0, Final residual = 0, No Iterations 0
PIMPLE: iteration 1
DICPCG:  Solving for p_rgh, Initial residual = 0.0781755, Final residual = 0.000778367, No Iterations 151
diagonal:  Solving for rho, Initial residual = 0, Final residual = 0, No Iterations 0
time step continuity errors : sum local = 1.02652e-05, global = -1.03705e-14, cumulative = 1.10715e-12
DICPCG:  Solving for p_rgh, Initial residual = 0.0592266, Final residual = 8.83582e-08, No Iterations 261
diagonal:  Solving for rho, Initial residual = 0, Final residual = 0, No Iterations 0
time step continuity errors : sum local = 1.01316e-05, global = 4.80206e-15, cumulative = 1.11196e-12
ExecutionTime = 15.85 s  ClockTime = 21 s

Courant Number mean: 0.000739159 max: 0.343427
deltaT = 0.00386724
Time = 0.0331903

diagonal:  Solving for rho, Initial residual = 0, Final residual = 0, No Iterations 0
PIMPLE: iteration 1
DICPCG:  Solving for p_rgh, Initial residual = 0.10725, Final residual = 0.000971201, No Iterations 160
diagonal:  Solving for rho, Initial residual = 0, Final residual = 0, No Iterations 0
time step continuity errors : sum local = 1.98244e-05, global = 1.21377e-15, cumulative = 1.11317e-12
DICPCG:  Solving for p_rgh, Initial residual = 0.0813535, Final residual = 9.76478e-08, No Iterations 269
diagonal:  Solving for rho, Initial residual = 0, Final residual = 0, No Iterations 0
time step continuity errors : sum local = 1.73852e-05, global = 1.49672e-14, cumulative = 1.12814e-12
ExecutionTime = 18.04 s  ClockTime = 23 s

Courant Number mean: 0.00116098 max: 0.552704
deltaT = 0.00350293
Time = 0.0366932

diagonal:  Solving for rho, Initial residual = 0, Final residual = 0, No Iterations 0
PIMPLE: iteration 1
DICPCG:  Solving for p_rgh, Initial residual = 0.232368, Final residual = 0.00203713, No Iterations 152
diagonal:  Solving for rho, Initial residual = 0, Final residual = 0, No Iterations 0
time step continuity errors : sum local = 1.76835e-05, global = -1.55853e-14, cumulative = 1.11255e-12
DICPCG:  Solving for p_rgh, Initial residual = 0.612261, Final residual = 9.16386e-08, No Iterations 269
diagonal:  Solving for rho, Initial residual = 0, Final residual = 0, No Iterations 0
time step continuity errors : sum local = 1.50182e-05, global = -1.54217e-14, cumulative = 1.09713e-12
ExecutionTime = 20.18 s  ClockTime = 25 s

Courant Number mean: 0.000962827 max: 0.423405
deltaT = 0.00391588
Time = 0.0406091

diagonal:  Solving for rho, Initial residual = 0, Final residual = 0, No Iterations 0
PIMPLE: iteration 1
DICPCG:  Solving for p_rgh, Initial residual = 0.164441, Final residual = 0.00157583, No Iterations 154
diagonal:  Solving for rho, Initial residual = 0, Final residual = 0, No Iterations 0
time step continuity errors : sum local = 1.43775e-05, global = 1.56169e-14, cumulative = 1.11275e-12
DICPCG:  Solving for p_rgh, Initial residual = 0.0767368, Final residual = 9.01593e-08, No Iterations 262
diagonal:  Solving for rho, Initial residual = 0, Final residual = 0, No Iterations 0
time step continuity errors : sum local = 1.15953e-05, global = 3.00477e-15, cumulative = 1.11575e-12
ExecutionTime = 22.27 s  ClockTime = 27 s

Courant Number mean: 0.000749582 max: 0.257093
deltaT = 0.00467996
Time = 0.0452891

diagonal:  Solving for rho, Initial residual = 0, Final residual = 0, No Iterations 0
PIMPLE: iteration 1
DICPCG:  Solving for p_rgh, Initial residual = 0.0626637, Final residual = 0.000617005, No Iterations 146
diagonal:  Solving for rho, Initial residual = 0, Final residual = 0, No Iterations 0
time step continuity errors : sum local = 6.31725e-06, global = -1.17021e-14, cumulative = 1.10405e-12
DICPCG:  Solving for p_rgh, Initial residual = 0.0261524, Final residual = 9.17062e-08, No Iterations 263
diagonal:  Solving for rho, Initial residual = 0, Final residual = 0, No Iterations 0
time step continuity errors : sum local = 3.96321e-06, global = 2.83554e-15, cumulative = 1.10689e-12
ExecutionTime = 24.61 s  ClockTime = 29 s

Courant Number mean: 0.000710516 max: 0.603023
deltaT = 0.00388094
Time = 0.04917

diagonal:  Solving for rho, Initial residual = 0, Final residual = 0, No Iterations 0
PIMPLE: iteration 1
DICPCG:  Solving for p_rgh, Initial residual = 0.104699, Final residual = 0.000971572, No Iterations 167
diagonal:  Solving for rho, Initial residual = 0, Final residual = 0, No Iterations 0
time step continuity errors : sum local = 3.58502e-06, global = -4.7505e-15, cumulative = 1.10214e-12
DICPCG:  Solving for p_rgh, Initial residual = 0.0595124, Final residual = 9.64395e-08, No Iterations 270
diagonal:  Solving for rho, Initial residual = 0, Final residual = 0, No Iterations 0
time step continuity errors : sum local = 4.00739e-06, global = 9.13901e-15, cumulative = 1.11127e-12
ExecutionTime = 26.85 s  ClockTime = 32 s

Courant Number mean: 0.000621016 max: 0.746227
deltaT = 0.0025979
Time = 0.0517679

diagonal:  Solving for rho, Initial residual = 0, Final residual = 0, No Iterations 0
PIMPLE: iteration 1
DICPCG:  Solving for p_rgh, Initial residual = 0.183122, Final residual = 0.00168878, No Iterations 141
diagonal:  Solving for rho, Initial residual = 0, Final residual = 0, No Iterations 0
time step continuity errors : sum local = 5.42158e-06, global = -1.00042e-14, cumulative = 1.10127e-12
DICPCG:  Solving for p_rgh, Initial residual = 0.139587, Final residual = 9.66113e-08, No Iterations 254
diagonal:  Solving for rho, Initial residual = 0, Final residual = 0, No Iterations 0
time step continuity errors : sum local = 5.06773e-06, global = -1.73248e-14, cumulative = 1.08395e-12
ExecutionTime = 28.72 s  ClockTime = 34 s

Courant Number mean: 0.000472235 max: 0.534385
deltaT = 0.00243136
Time = 0.0541993

diagonal:  Solving for rho, Initial residual = 0, Final residual = 0, No Iterations 0
PIMPLE: iteration 1
DICPCG:  Solving for p_rgh, Initial residual = 0.207603, Final residual = 0.00200536, No Iterations 132
diagonal:  Solving for rho, Initial residual = 0, Final residual = 0, No Iterations 0
time step continuity errors : sum local = 5.91394e-06, global = 1.2629e-14, cumulative = 1.09657e-12
DICPCG:  Solving for p_rgh, Initial residual = 0.261188, Final residual = 9.48396e-08, No Iterations 257
diagonal:  Solving for rho, Initial residual = 0, Final residual = 0, No Iterations 0
time step continuity errors : sum local = 5.26175e-06, global = 2.85881e-15, cumulative = 1.09943e-12
ExecutionTime = 30.49 s  ClockTime = 35 s

Courant Number mean: 0.000463443 max: 0.464276
deltaT = 0.00261995
Time = 0.0568192

diagonal:  Solving for rho, Initial residual = 0, Final residual = 0, No Iterations 0
PIMPLE: iteration 1
DICPCG:  Solving for p_rgh, Initial residual = 0.430632, Final residual = 0.00412306, No Iterations 127
diagonal:  Solving for rho, Initial residual = 0, Final residual = 0, No Iterations 0
time step continuity errors : sum local = 5.48838e-06, global = -4.08123e-15, cumulative = 1.09535e-12
DICPCG:  Solving for p_rgh, Initial residual = 0.235421, Final residual = 9.57175e-08, No Iterations 260
diagonal:  Solving for rho, Initial residual = 0, Final residual = 0, No Iterations 0
time step continuity errors : sum local = 4.62697e-06, global = 5.86381e-15, cumulative = 1.10122e-12
ExecutionTime = 32.39 s  ClockTime = 37 s

Courant Number mean: 0.000468382 max: 0.417756
deltaT = 0.00292913
Time = 0.0597484

diagonal:  Solving for rho, Initial residual = 0, Final residual = 0, No Iterations 0
PIMPLE: iteration 1
DICPCG:  Solving for p_rgh, Initial residual = 0.158063, Final residual = 0.00156281, No Iterations 156
diagonal:  Solving for rho, Initial residual = 0, Final residual = 0, No Iterations 0
time step continuity errors : sum local = 3.6202e-06, global = -5.69335e-15, cumulative = 1.09552e-12
DICPCG:  Solving for p_rgh, Initial residual = 0.0850552, Final residual = 9.9521e-08, No Iterations 242
diagonal:  Solving for rho, Initial residual = 0, Final residual = 0, No Iterations 0
time step continuity errors : sum local = 2.77812e-06, global = 1.69939e-16, cumulative = 1.09569e-12
ExecutionTime = 34.31 s  ClockTime = 39 s

Courant Number mean: 0.000455965 max: 0.349035
deltaT = 0.00334609
Time = 0.0630944

diagonal:  Solving for rho, Initial residual = 0, Final residual = 0, No Iterations 0
PIMPLE: iteration 1
DICPCG:  Solving for p_rgh, Initial residual = 0.0769549, Final residual = 0.000717317, No Iterations 143
diagonal:  Solving for rho, Initial residual = 0, Final residual = 0, No Iterations 0
time step continuity errors : sum local = 7.36238e-07, global = -2.92868e-15, cumulative = 1.09276e-12
DICPCG:  Solving for p_rgh, Initial residual = 0.0411652, Final residual = 9.60076e-08, No Iterations 259
diagonal:  Solving for rho, Initial residual = 0, Final residual = 0, No Iterations 0
time step continuity errors : sum local = 1.19888e-07, global = -5.74242e-15, cumulative = 1.08702e-12
ExecutionTime = 36.36 s  ClockTime = 41 s

Courant Number mean: 0.000479126 max: 0.260716
deltaT = 0.00398683
Time = 0.0670813

diagonal:  Solving for rho, Initial residual = 0, Final residual = 0, No Iterations 0
PIMPLE: iteration 1
DICPCG:  Solving for p_rgh, Initial residual = 0.0753848, Final residual = 0.000735904, No Iterations 155
diagonal:  Solving for rho, Initial residual = 0, Final residual = 0, No Iterations 0
time step continuity errors : sum local = 2.65083e-06, global = -1.68583e-14, cumulative = 1.07016e-12
DICPCG:  Solving for p_rgh, Initial residual = 0.0607447, Final residual = 9.50023e-08, No Iterations 262
diagonal:  Solving for rho, Initial residual = 0, Final residual = 0, No Iterations 0
time step continuity errors : sum local = 2.72777e-06, global = 8.68193e-15, cumulative = 1.07884e-12
ExecutionTime = 38.57 s  ClockTime = 44 s

Courant Number mean: 0.000566873 max: 0.259866
deltaT = 0.00475979
Time = 0.0718411

diagonal:  Solving for rho, Initial residual = 0, Final residual = 0, No Iterations 0
PIMPLE: iteration 1
DICPCG:  Solving for p_rgh, Initial residual = 0.0946306, Final residual = 0.000925244, No Iterations 154
diagonal:  Solving for rho, Initial residual = 0, Final residual = 0, No Iterations 0
time step continuity errors : sum local = 5.21233e-06, global = -2.76452e-15, cumulative = 1.07608e-12
DICPCG:  Solving for p_rgh, Initial residual = 0.0781134, Final residual = 9.40876e-08, No Iterations 281
diagonal:  Solving for rho, Initial residual = 0, Final residual = 0, No Iterations 0
time step continuity errors : sum local = 4.44517e-06, global = -5.95834e-15, cumulative = 1.07012e-12
ExecutionTime = 40.71 s  ClockTime = 46 s

Courant Number mean: 0.000674225 max: 0.28965
deltaT = 0.00559132
Time = 0.0774324

diagonal:  Solving for rho, Initial residual = 0, Final residual = 0, No Iterations 0
PIMPLE: iteration 1
DICPCG:  Solving for p_rgh, Initial residual = 0.14062, Final residual = 0.00136966, No Iterations 164
diagonal:  Solving for rho, Initial residual = 0, Final residual = 0, No Iterations 0
time step continuity errors : sum local = 5.28303e-06, global = 3.99273e-15, cumulative = 1.07411e-12
DICPCG:  Solving for p_rgh, Initial residual = 0.152592, Final residual = 9.79758e-08, No Iterations 283
diagonal:  Solving for rho, Initial residual = 0, Final residual = 0, No Iterations 0
time step continuity errors : sum local = 3.83184e-06, global = -1.04482e-15, cumulative = 1.07307e-12
ExecutionTime = 42.54 s  ClockTime = 48 s

Courant Number mean: 0.000764209 max: 0.308508
deltaT = 0.00649696
Time = 0.0839293

diagonal:  Solving for rho, Initial residual = 0, Final residual = 0, No Iterations 0
PIMPLE: iteration 1
DICPCG:  Solving for p_rgh, Initial residual = 0.171649, Final residual = 0.00160111, No Iterations 155
diagonal:  Solving for rho, Initial residual = 0, Final residual = 0, No Iterations 0
time step continuity errors : sum local = 2.35138e-06, global = 2.25495e-15, cumulative = 1.07532e-12
DICPCG:  Solving for p_rgh, Initial residual = 0.0454861, Final residual = 9.18987e-08, No Iterations 281
diagonal:  Solving for rho, Initial residual = 0, Final residual = 0, No Iterations 0
time step continuity errors : sum local = 1.09303e-06, global = -1.25457e-14, cumulative = 1.06278e-12
ExecutionTime = 44.51 s  ClockTime = 50 s

Courant Number mean: 0.000857401 max: 0.318363
deltaT = 0.00750878
Time = 0.0914381

diagonal:  Solving for rho, Initial residual = 0, Final residual = 0, No Iterations 0
PIMPLE: iteration 1
DICPCG:  Solving for p_rgh, Initial residual = 0.0896112, Final residual = 0.000851452, No Iterations 111
diagonal:  Solving for rho, Initial residual = 0, Final residual = 0, No Iterations 0
time step continuity errors : sum local = 1.43537e-06, global = 2.04327e-14, cumulative = 1.08321e-12
DICPCG:  Solving for p_rgh, Initial residual = 0.0488291, Final residual = 8.75739e-08, No Iterations 291
diagonal:  Solving for rho, Initial residual = 0, Final residual = 0, No Iterations 0
time step continuity errors : sum local = 1.4881e-06, global = 2.70579e-14, cumulative = 1.11027e-12
ExecutionTime = 46.3 s  ClockTime = 52 s

Courant Number mean: 0.000973682 max: 0.313058
deltaT = 0.00873617
Time = 0.100174

diagonal:  Solving for rho, Initial residual = 0, Final residual = 0, No Iterations 0
PIMPLE: iteration 1
DICPCG:  Solving for p_rgh, Initial residual = 0.10805, Final residual = 0.00103519, No Iterations 175
diagonal:  Solving for rho, Initial residual = 0, Final residual = 0, No Iterations 0
time step continuity errors : sum local = 2.72218e-06, global = -1.78005e-14, cumulative = 1.09247e-12
DICPCG:  Solving for p_rgh, Initial residual = 0.0912362, Final residual = 8.95258e-08, No Iterations 301
diagonal:  Solving for rho, Initial residual = 0, Final residual = 0, No Iterations 0
time step continuity errors : sum local = 1.76154e-06, global = 1.54352e-15, cumulative = 1.09401e-12
ExecutionTime = 48.33 s  ClockTime = 54 s

Courant Number mean: 0.00111652 max: 0.328653
deltaT = 0.0101104
Time = 0.110285

diagonal:  Solving for rho, Initial residual = 0, Final residual = 0, No Iterations 0
PIMPLE: iteration 1
DICPCG:  Solving for p_rgh, Initial residual = 0.102677, Final residual = 0.00102217, No Iterations 162
diagonal:  Solving for rho, Initial residual = 0, Final residual = 0, No Iterations 0
time step continuity errors : sum local = 1.13972e-06, global = -1.8661e-14, cumulative = 1.07535e-12
DICPCG:  Solving for p_rgh, Initial residual = 0.0318482, Final residual = 8.79819e-08, No Iterations 290
diagonal:  Solving for rho, Initial residual = 0, Final residual = 0, No Iterations 0
time step continuity errors : sum local = 3.61783e-07, global = -6.47887e-15, cumulative = 1.06887e-12
ExecutionTime = 50.11 s  ClockTime = 56 s

Courant Number mean: 0.00127272 max: 0.340083
deltaT = 0.0115547
Time = 0.121839

diagonal:  Solving for rho, Initial residual = 0, Final residual = 0, No Iterations 0
PIMPLE: iteration 1
DICPCG:  Solving for p_rgh, Initial residual = 0.0671336, Final residual = 0.000648246, No Iterations 173
diagonal:  Solving for rho, Initial residual = 0, Final residual = 0, No Iterations 0
time step continuity errors : sum local = 6.20977e-07, global = -1.36747e-14, cumulative = 1.0552e-12
DICPCG:  Solving for p_rgh, Initial residual = 0.0346452, Final residual = 9.36768e-08, No Iterations 292
diagonal:  Solving for rho, Initial residual = 0, Final residual = 0, No Iterations 0
time step continuity errors : sum local = 5.73174e-07, global = -1.4183e-14, cumulative = 1.04102e-12
ExecutionTime = 51.96 s  ClockTime = 57 s

Courant Number mean: 0.00143094 max: 0.339997
deltaT = 0.0133055
Time = 0.135145

diagonal:  Solving for rho, Initial residual = 0, Final residual = 0, No Iterations 0
PIMPLE: iteration 1
DICPCG:  Solving for p_rgh, Initial residual = 0.0682761, Final residual = 0.000657816, No Iterations 183
diagonal:  Solving for rho, Initial residual = 0, Final residual = 0, No Iterations 0
time step continuity errors : sum local = 8.03731e-07, global = 7.40579e-15, cumulative = 1.04842e-12
DICPCG:  Solving for p_rgh, Initial residual = 0.0423524, Final residual = 9.25842e-08, No Iterations 299
diagonal:  Solving for rho, Initial residual = 0, Final residual = 0, No Iterations 0
time step continuity errors : sum local = 4.12689e-07, global = -1.25595e-14, cumulative = 1.03586e-12
ExecutionTime = 54.05 s  ClockTime = 60 s

Courant Number mean: 0.00161201 max: 0.344178
deltaT = 0.0151729
Time = 0.150318

diagonal:  Solving for rho, Initial residual = 0, Final residual = 0, No Iterations 0
PIMPLE: iteration 1
DICPCG:  Solving for p_rgh, Initial residual = 0.0843229, Final residual = 0.000830112, No Iterations 182
diagonal:  Solving for rho, Initial residual = 0, Final residual = 0, No Iterations 0
time step continuity errors : sum local = 1.64782e-07, global = 3.01098e-14, cumulative = 1.06597e-12
DICPCG:  Solving for p_rgh, Initial residual = 0.0464659, Final residual = 9.53948e-08, No Iterations 310
diagonal:  Solving for rho, Initial residual = 0, Final residual = 0, No Iterations 0
time step continuity errors : sum local = 1.29076e-08, global = 3.42112e-14, cumulative = 1.10018e-12
ExecutionTime = 56.19 s  ClockTime = 62 s

Courant Number mean: 0.00179324 max: 0.382174
deltaT = 0.0169936
Time = 0.167311

diagonal:  Solving for rho, Initial residual = 0, Final residual = 0, No Iterations 0
PIMPLE: iteration 1
DICPCG:  Solving for p_rgh, Initial residual = 0.0938322, Final residual = 0.000901927, No Iterations 164
diagonal:  Solving for rho, Initial residual = 0, Final residual = 0, No Iterations 0
time step continuity errors : sum local = 1.5833e-07, global = -5.81834e-15, cumulative = 1.09436e-12
DICPCG:  Solving for p_rgh, Initial residual = 0.037884, Final residual = 9.30145e-08, No Iterations 311
diagonal:  Solving for rho, Initial residual = 0, Final residual = 0, No Iterations 0
time step continuity errors : sum local = 4.90406e-08, global = -1.54673e-14, cumulative = 1.0789e-12
ExecutionTime = 58.04 s  ClockTime = 64 s

Courant Number mean: 0.00195821 max: 0.396418
deltaT = 0.0189247
Time = 0.186236

diagonal:  Solving for rho, Initial residual = 0, Final residual = 0, No Iterations 0
PIMPLE: iteration 1
DICPCG:  Solving for p_rgh, Initial residual = 0.0727479, Final residual = 0.000706518, No Iterations 176
diagonal:  Solving for rho, Initial residual = 0, Final residual = 0, No Iterations 0
time step continuity errors : sum local = 6.97193e-08, global = 1.32312e-14, cumulative = 1.09213e-12
DICPCG:  Solving for p_rgh, Initial residual = 0.0320836, Final residual = 9.69117e-08, No Iterations 306
diagonal:  Solving for rho, Initial residual = 0, Final residual = 0, No Iterations 0
time step continuity errors : sum local = 2.54642e-08, global = -1.09255e-14, cumulative = 1.0812e-12
ExecutionTime = 59.96 s  ClockTime = 65 s

Courant Number mean: 0.00213013 max: 0.395853
deltaT = 0.0214148
Time = 0.207651

diagonal:  Solving for rho, Initial residual = 0, Final residual = 0, No Iterations 0
PIMPLE: iteration 1
DICPCG:  Solving for p_rgh, Initial residual = 0.0645863, Final residual = 0.00064547, No Iterations 159
diagonal:  Solving for rho, Initial residual = 0, Final residual = 0, No Iterations 0
time step continuity errors : sum local = 8.44388e-08, global = 8.32695e-15, cumulative = 1.08953e-12
DICPCG:  Solving for p_rgh, Initial residual = 0.0333755, Final residual = 9.85482e-08, No Iterations 308
diagonal:  Solving for rho, Initial residual = 0, Final residual = 0, No Iterations 0
time step continuity errors : sum local = 3.50096e-08, global = -6.04748e-16, cumulative = 1.08892e-12
ExecutionTime = 61.86 s  ClockTime = 67 s

Courant Number mean: 0.0023554 max: 0.416197
deltaT = 0.0240106
Time = 0.231662

diagonal:  Solving for rho, Initial residual = 0, Final residual = 0, No Iterations 0
PIMPLE: iteration 1
DICPCG:  Solving for p_rgh, Initial residual = 0.0614349, Final residual = 0.000589402, No Iterations 143
diagonal:  Solving for rho, Initial residual = 0, Final residual = 0, No Iterations 0
time step continuity errors : sum local = 6.74746e-08, global = 1.52552e-14, cumulative = 1.10418e-12
DICPCG:  Solving for p_rgh, Initial residual = 0.0332886, Final residual = 8.84612e-08, No Iterations 312
diagonal:  Solving for rho, Initial residual = 0, Final residual = 0, No Iterations 0
time step continuity errors : sum local = 2.11842e-08, global = 2.10826e-14, cumulative = 1.12526e-12
ExecutionTime = 63.8 s  ClockTime = 69 s

Courant Number mean: 0.00257801 max: 0.427918
deltaT = 0.0264944
Time = 0.258156

diagonal:  Solving for rho, Initial residual = 0, Final residual = 0, No Iterations 0
PIMPLE: iteration 1
DICPCG:  Solving for p_rgh, Initial residual = 0.0547885, Final residual = 0.000547258, No Iterations 90
diagonal:  Solving for rho, Initial residual = 0, Final residual = 0, No Iterations 0
time step continuity errors : sum local = 6.37783e-08, global = -8.37184e-15, cumulative = 1.11689e-12
DICPCG:  Solving for p_rgh, Initial residual = 0.0318189, Final residual = 9.64233e-08, No Iterations 312
diagonal:  Solving for rho, Initial residual = 0, Final residual = 0, No Iterations 0
time step continuity errors : sum local = 1.9597e-08, global = -2.26787e-15, cumulative = 1.11462e-12
ExecutionTime = 65.6 s  ClockTime = 71 s

Courant Number mean: 0.00278091 max: 0.428951
deltaT = 0.0296738
Time = 0.28783

diagonal:  Solving for rho, Initial residual = 0, Final residual = 0, No Iterations 0
PIMPLE: iteration 1
DICPCG:  Solving for p_rgh, Initial residual = 0.0622585, Final residual = 0.000615044, No Iterations 91
diagonal:  Solving for rho, Initial residual = 0, Final residual = 0, No Iterations 0
time step continuity errors : sum local = 6.98621e-08, global = -9.34524e-15, cumulative = 1.10528e-12
DICPCG:  Solving for p_rgh, Initial residual = 0.0321478, Final residual = 8.48812e-08, No Iterations 313
diagonal:  Solving for rho, Initial residual = 0, Final residual = 0, No Iterations 0
time step continuity errors : sum local = 1.42542e-08, global = -3.25522e-15, cumulative = 1.10202e-12
ExecutionTime = 67.29 s  ClockTime = 73 s

Courant Number mean: 0.00304448 max: 0.434777
deltaT = 0.0323714
Time = 0.320201

diagonal:  Solving for rho, Initial residual = 0, Final residual = 0, No Iterations 0
PIMPLE: iteration 1
DICPCG:  Solving for p_rgh, Initial residual = 0.0531707, Final residual = 0.000516653, No Iterations 80
diagonal:  Solving for rho, Initial residual = 0, Final residual = 0, No Iterations 0
time step continuity errors : sum local = 5.46563e-08, global = -8.66411e-15, cumulative = 1.09336e-12
DICPCG:  Solving for p_rgh, Initial residual = 0.0305165, Final residual = 9.25027e-08, No Iterations 313
diagonal:  Solving for rho, Initial residual = 0, Final residual = 0, No Iterations 0
time step continuity errors : sum local = 9.14803e-09, global = -1.71514e-14, cumulative = 1.07621e-12
ExecutionTime = 68.91 s  ClockTime = 74 s

Courant Number mean: 0.00324529 max: 0.424195
deltaT = 0.0357789
Time = 0.35598

diagonal:  Solving for rho, Initial residual = 0, Final residual = 0, No Iterations 0
PIMPLE: iteration 1
DICPCG:  Solving for p_rgh, Initial residual = 0.0451472, Final residual = 0.000449847, No Iterations 83
diagonal:  Solving for rho, Initial residual = 0, Final residual = 0, No Iterations 0
time step continuity errors : sum local = 5.01962e-08, global = -2.60564e-14, cumulative = 1.05015e-12
DICPCG:  Solving for p_rgh, Initial residual = 0.0280851, Final residual = 8.13331e-08, No Iterations 314
diagonal:  Solving for rho, Initial residual = 0, Final residual = 0, No Iterations 0
time step continuity errors : sum local = 8.65802e-09, global = 1.27284e-14, cumulative = 1.06288e-12
ExecutionTime = 70.63 s  ClockTime = 76 s

Courant Number mean: 0.00350428 max: 0.415842
deltaT = 0.0402512
Time = 0.396231

diagonal:  Solving for rho, Initial residual = 0, Final residual = 0, No Iterations 0
PIMPLE: iteration 1
DICPCG:  Solving for p_rgh, Initial residual = 0.0436882, Final residual = 0.00043049, No Iterations 81
diagonal:  Solving for rho, Initial residual = 0, Final residual = 0, No Iterations 0
time step continuity errors : sum local = 5.12288e-08, global = 1.29149e-14, cumulative = 1.07579e-12
DICPCG:  Solving for p_rgh, Initial residual = 0.0260684, Final residual = 9.38292e-08, No Iterations 314
diagonal:  Solving for rho, Initial residual = 0, Final residual = 0, No Iterations 0
time step continuity errors : sum local = 7.86262e-09, global = -4.80974e-15, cumulative = 1.07098e-12
ExecutionTime = 72.39 s  ClockTime = 78 s

Courant Number mean: 0.00385062 max: 0.448484
deltaT = 0.0464437
Time = 0.442675

diagonal:  Solving for rho, Initial residual = 0, Final residual = 0, No Iterations 0
PIMPLE: iteration 1
DICPCG:  Solving for p_rgh, Initial residual = 0.0413945, Final residual = 0.00041362, No Iterations 98
diagonal:  Solving for rho, Initial residual = 0, Final residual = 0, No Iterations 0
time step continuity errors : sum local = 5.70655e-08, global = 4.64243e-15, cumulative = 1.07563e-12
DICPCG:  Solving for p_rgh, Initial residual = 0.0237862, Final residual = 9.98593e-08, No Iterations 298
diagonal:  Solving for rho, Initial residual = 0, Final residual = 0, No Iterations 0
time step continuity errors : sum local = 8.47961e-09, global = -6.64325e-16, cumulative = 1.07496e-12
ExecutionTime = 74.13 s  ClockTime = 80 s

Courant Number mean: 0.00434161 max: 0.488757
deltaT = 0.0464437
Time = 0.489119

diagonal:  Solving for rho, Initial residual = 0, Final residual = 0, No Iterations 0
PIMPLE: iteration 1
DICPCG:  Solving for p_rgh, Initial residual = 0.0313246, Final residual = 0.00031058, No Iterations 103
diagonal:  Solving for rho, Initial residual = 0, Final residual = 0, No Iterations 0
time step continuity errors : sum local = 4.10831e-08, global = -4.30849e-16, cumulative = 1.07453e-12
DICPCG:  Solving for p_rgh, Initial residual = 0.0213051, Final residual = 8.14763e-08, No Iterations 314
diagonal:  Solving for rho, Initial residual = 0, Final residual = 0, No Iterations 0
time step continuity errors : sum local = 7.67397e-09, global = 1.21454e-14, cumulative = 1.08668e-12
ExecutionTime = 75.96 s  ClockTime = 82 s

Courant Number mean: 0.00424898 max: 0.459059
deltaT = 0.0510881
Time = 0.540207

diagonal:  Solving for rho, Initial residual = 0, Final residual = 0, No Iterations 0
PIMPLE: iteration 1
DICPCG:  Solving for p_rgh, Initial residual = 0.029753, Final residual = 0.000294097, No Iterations 106
diagonal:  Solving for rho, Initial residual = 0, Final residual = 0, No Iterations 0
time step continuity errors : sum local = 3.99747e-08, global = -1.68046e-14, cumulative = 1.06987e-12
DICPCG:  Solving for p_rgh, Initial residual = 0.0198166, Final residual = 7.9681e-08, No Iterations 314
diagonal:  Solving for rho, Initial residual = 0, Final residual = 0, No Iterations 0
time step continuity errors : sum local = 6.78531e-09, global = -1.39662e-14, cumulative = 1.05591e-12
ExecutionTime = 77.87 s  ClockTime = 83 s

Courant Number mean: 0.00457539 max: 0.478573
deltaT = 0.0510881
Time = 0.591295

diagonal:  Solving for rho, Initial residual = 0, Final residual = 0, No Iterations 0
PIMPLE: iteration 1
DICPCG:  Solving for p_rgh, Initial residual = 0.0249608, Final residual = 0.000239724, No Iterations 105
diagonal:  Solving for rho, Initial residual = 0, Final residual = 0, No Iterations 0
time step continuity errors : sum local = 3.10059e-08, global = 2.74518e-15, cumulative = 1.05865e-12
DICPCG:  Solving for p_rgh, Initial residual = 0.0177383, Final residual = 9.18105e-08, No Iterations 313
diagonal:  Solving for rho, Initial residual = 0, Final residual = 0, No Iterations 0
time step continuity errors : sum local = 6.29377e-09, global = -6.60444e-15, cumulative = 1.05205e-12
ExecutionTime = 79.71 s  ClockTime = 85 s

Courant Number mean: 0.004483 max: 0.451304
deltaT = 0.0583864
Time = 0.649681

diagonal:  Solving for rho, Initial residual = 0, Final residual = 0, No Iterations 0
PIMPLE: iteration 1
DICPCG:  Solving for p_rgh, Initial residual = 0.0237814, Final residual = 0.000227783, No Iterations 110
diagonal:  Solving for rho, Initial residual = 0, Final residual = 0, No Iterations 0
time step continuity errors : sum local = 3.26422e-08, global = 2.08109e-15, cumulative = 1.05413e-12
DICPCG:  Solving for p_rgh, Initial residual = 0.0162539, Final residual = 9.51522e-08, No Iterations 313
diagonal:  Solving for rho, Initial residual = 0, Final residual = 0, No Iterations 0
time step continuity errors : sum local = 7.01711e-09, global = 7.44141e-15, cumulative = 1.06157e-12
ExecutionTime = 81.63 s  ClockTime = 87 s

Courant Number mean: 0.00501983 max: 0.481784
deltaT = 0.0583864
Time = 0.708068

diagonal:  Solving for rho, Initial residual = 0, Final residual = 0, No Iterations 0
PIMPLE: iteration 1
DICPCG:  Solving for p_rgh, Initial residual = 0.0233389, Final residual = 0.000231648, No Iterations 104
diagonal:  Solving for rho, Initial residual = 0, Final residual = 0, No Iterations 0
time step continuity errors : sum local = 3.25007e-08, global = 1.84042e-14, cumulative = 1.07997e-12
DICPCG:  Solving for p_rgh, Initial residual = 0.0148562, Final residual = 9.38722e-08, No Iterations 312
diagonal:  Solving for rho, Initial residual = 0, Final residual = 0, No Iterations 0
time step continuity errors : sum local = 7.08452e-09, global = 1.02506e-15, cumulative = 1.081e-12
ExecutionTime = 83.79 s  ClockTime = 89 s

Courant Number mean: 0.00492233 max: 0.448934
deltaT = 0.072983
Time = 0.781051

diagonal:  Solving for rho, Initial residual = 0, Final residual = 0, No Iterations 0
PIMPLE: iteration 1
DICPCG:  Solving for p_rgh, Initial residual = 0.0241163, Final residual = 0.000238382, No Iterations 106
diagonal:  Solving for rho, Initial residual = 0, Final residual = 0, No Iterations 0
time step continuity errors : sum local = 4.05651e-08, global = 1.87928e-15, cumulative = 1.08288e-12
DICPCG:  Solving for p_rgh, Initial residual = 0.0139158, Final residual = 9.7191e-08, No Iterations 312
diagonal:  Solving for rho, Initial residual = 0, Final residual = 0, No Iterations 0
time step continuity errors : sum local = 8.66031e-09, global = 3.54568e-14, cumulative = 1.11833e-12
ExecutionTime = 85.85 s  ClockTime = 91 s

Courant Number mean: 0.00603154 max: 0.517786
deltaT = 0.072983
Time = 0.854034

diagonal:  Solving for rho, Initial residual = 0, Final residual = 0, No Iterations 0
PIMPLE: iteration 1
DICPCG:  Solving for p_rgh, Initial residual = 0.0200554, Final residual = 0.000196901, No Iterations 102
diagonal:  Solving for rho, Initial residual = 0, Final residual = 0, No Iterations 0
time step continuity errors : sum local = 3.43167e-08, global = -2.94273e-14, cumulative = 1.08891e-12
DICPCG:  Solving for p_rgh, Initial residual = 0.0122948, Final residual = 9.90784e-08, No Iterations 309
diagonal:  Solving for rho, Initial residual = 0, Final residual = 0, No Iterations 0
time step continuity errors : sum local = 8.84588e-09, global = -3.82043e-14, cumulative = 1.0507e-12
ExecutionTime = 87.95 s  ClockTime = 94 s

Courant Number mean: 0.00591669 max: 0.477371
deltaT = 0.072983
Time = 0.927017

diagonal:  Solving for rho, Initial residual = 0, Final residual = 0, No Iterations 0
PIMPLE: iteration 1
DICPCG:  Solving for p_rgh, Initial residual = 0.0183558, Final residual = 0.000179881, No Iterations 102
diagonal:  Solving for rho, Initial residual = 0, Final residual = 0, No Iterations 0
time step continuity errors : sum local = 3.02486e-08, global = 2.46706e-14, cumulative = 1.07537e-12
DICPCG:  Solving for p_rgh, Initial residual = 0.0110563, Final residual = 9.1829e-08, No Iterations 305
diagonal:  Solving for rho, Initial residual = 0, Final residual = 0, No Iterations 0
time step continuity errors : sum local = 8.66742e-09, global = -2.18589e-16, cumulative = 1.07516e-12
ExecutionTime = 90.01 s  ClockTime = 96 s

Courant Number mean: 0.00580803 max: 0.440033
deltaT = 0.072983
Time = 1

diagonal:  Solving for rho, Initial residual = 0, Final residual = 0, No Iterations 0
PIMPLE: iteration 1
DICPCG:  Solving for p_rgh, Initial residual = 0.0169674, Final residual = 0.000156354, No Iterations 103
diagonal:  Solving for rho, Initial residual = 0, Final residual = 0, No Iterations 0
time step continuity errors : sum local = 2.55782e-08, global = -1.23971e-14, cumulative = 1.06276e-12
DICPCG:  Solving for p_rgh, Initial residual = 0.0100269, Final residual = 9.73608e-08, No Iterations 305
diagonal:  Solving for rho, Initial residual = 0, Final residual = 0, No Iterations 0
time step continuity errors : sum local = 8.50593e-09, global = 3.77358e-16, cumulative = 1.06314e-12
ExecutionTime = 92.91 s  ClockTime = 99 s

Courant Number mean: 0.00570442 max: 0.409783
deltaT = 0.0833333
Time = 1.08333

diagonal:  Solving for rho, Initial residual = 0, Final residual = 0, No Iterations 0
PIMPLE: iteration 1
DICPCG:  Solving for p_rgh, Initial residual = 0.0169048, Final residual = 0.000166279, No Iterations 103
diagonal:  Solving for rho, Initial residual = 0, Final residual = 0, No Iterations 0
time step continuity errors : sum local = 3.00566e-08, global = -5.44471e-15, cumulative = 1.05769e-12
DICPCG:  Solving for p_rgh, Initial residual = 0.00914267, Final residual = 9.25197e-08, No Iterations 305
diagonal:  Solving for rho, Initial residual = 0, Final residual = 0, No Iterations 0
time step continuity errors : sum local = 9.7986e-09, global = 1.23878e-14, cumulative = 1.07008e-12
ExecutionTime = 95.02 s  ClockTime = 101 s

Courant Number mean: 0.00639768 max: 0.434458
deltaT = 0.0916667
Time = 1.175

diagonal:  Solving for rho, Initial residual = 0, Final residual = 0, No Iterations 0
PIMPLE: iteration 1
DICPCG:  Solving for p_rgh, Initial residual = 0.0156132, Final residual = 0.000145401, No Iterations 103
diagonal:  Solving for rho, Initial residual = 0, Final residual = 0, No Iterations 0
time step continuity errors : sum local = 2.93964e-08, global = -1.45168e-14, cumulative = 1.05556e-12
DICPCG:  Solving for p_rgh, Initial residual = 0.00842824, Final residual = 9.85097e-08, No Iterations 305
diagonal:  Solving for rho, Initial residual = 0, Final residual = 0, No Iterations 0
time step continuity errors : sum local = 1.0921e-08, global = 1.89592e-15, cumulative = 1.05746e-12
ExecutionTime = 97.25 s  ClockTime = 103 s

Courant Number mean: 0.00691392 max: 0.44338
deltaT = 0.103125
Time = 1.27812

diagonal:  Solving for rho, Initial residual = 0, Final residual = 0, No Iterations 0
PIMPLE: iteration 1
DICPCG:  Solving for p_rgh, Initial residual = 0.0151277, Final residual = 0.000148516, No Iterations 102
diagonal:  Solving for rho, Initial residual = 0, Final residual = 0, No Iterations 0
time step continuity errors : sum local = 3.30583e-08, global = -1.00051e-14, cumulative = 1.04745e-12
DICPCG:  Solving for p_rgh, Initial residual = 0.00782317, Final residual = 9.56067e-08, No Iterations 305
diagonal:  Solving for rho, Initial residual = 0, Final residual = 0, No Iterations 0
time step continuity errors : sum local = 1.24231e-08, global = 2.30889e-15, cumulative = 1.04976e-12
ExecutionTime = 99.22 s  ClockTime = 105 s

Courant Number mean: 0.00764275 max: 0.462801
deltaT = 0.120313
Time = 1.39844

diagonal:  Solving for rho, Initial residual = 0, Final residual = 0, No Iterations 0
PIMPLE: iteration 1
DICPCG:  Solving for p_rgh, Initial residual = 0.0133796, Final residual = 0.000131728, No Iterations 103
diagonal:  Solving for rho, Initial residual = 0, Final residual = 0, No Iterations 0
time step continuity errors : sum local = 3.48324e-08, global = 2.84856e-15, cumulative = 1.05261e-12
DICPCG:  Solving for p_rgh, Initial residual = 0.00711195, Final residual = 8.77628e-08, No Iterations 305
diagonal:  Solving for rho, Initial residual = 0, Final residual = 0, No Iterations 0
time step continuity errors : sum local = 1.51832e-08, global = -2.71228e-14, cumulative = 1.02549e-12
ExecutionTime = 101.07 s  ClockTime = 107 s

Courant Number mean: 0.00876238 max: 0.500099
deltaT = 0.120313
Time = 1.51875

diagonal:  Solving for rho, Initial residual = 0, Final residual = 0, No Iterations 0
PIMPLE: iteration 1
DICPCG:  Solving for p_rgh, Initial residual = 0.0121782, Final residual = 0.000120221, No Iterations 105
diagonal:  Solving for rho, Initial residual = 0, Final residual = 0, No Iterations 0
time step continuity errors : sum local = 3.2514e-08, global = 5.67619e-14, cumulative = 1.08225e-12
DICPCG:  Solving for p_rgh, Initial residual = 0.00659531, Final residual = 9.5447e-08, No Iterations 304
diagonal:  Solving for rho, Initial residual = 0, Final residual = 0, No Iterations 0
time step continuity errors : sum local = 1.51906e-08, global = 1.65931e-14, cumulative = 1.09884e-12
ExecutionTime = 103.29 s  ClockTime = 109 s

Courant Number mean: 0.00861403 max: 0.464207
deltaT = 0.120313
Time = 1.63906

diagonal:  Solving for rho, Initial residual = 0, Final residual = 0, No Iterations 0
PIMPLE: iteration 1
DICPCG:  Solving for p_rgh, Initial residual = 0.0115028, Final residual = 0.000112173, No Iterations 106
diagonal:  Solving for rho, Initial residual = 0, Final residual = 0, No Iterations 0
time step continuity errors : sum local = 2.94365e-08, global = -1.77654e-14, cumulative = 1.08108e-12
DICPCG:  Solving for p_rgh, Initial residual = 0.00615779, Final residual = 8.7533e-08, No Iterations 304
diagonal:  Solving for rho, Initial residual = 0, Final residual = 0, No Iterations 0
time step continuity errors : sum local = 1.49304e-08, global = -1.63147e-16, cumulative = 1.08091e-12
ExecutionTime = 105.15 s  ClockTime = 111 s

Courant Number mean: 0.00847094 max: 0.431771
deltaT = 0.120313
Time = 1.75937

diagonal:  Solving for rho, Initial residual = 0, Final residual = 0, No Iterations 0
PIMPLE: iteration 1
DICPCG:  Solving for p_rgh, Initial residual = 0.0108738, Final residual = 0.000103181, No Iterations 108
diagonal:  Solving for rho, Initial residual = 0, Final residual = 0, No Iterations 0
time step continuity errors : sum local = 2.72816e-08, global = 1.90401e-14, cumulative = 1.09995e-12
DICPCG:  Solving for p_rgh, Initial residual = 0.00574191, Final residual = 9.61873e-08, No Iterations 303
diagonal:  Solving for rho, Initial residual = 0, Final residual = 0, No Iterations 0
time step continuity errors : sum local = 1.49706e-08, global = 1.42004e-15, cumulative = 1.10137e-12
ExecutionTime = 106.79 s  ClockTime = 113 s

Courant Number mean: 0.008333 max: 0.402315
deltaT = 0.120313
Time = 1.87969

diagonal:  Solving for rho, Initial residual = 0, Final residual = 0, No Iterations 0
PIMPLE: iteration 1
DICPCG:  Solving for p_rgh, Initial residual = 0.0102757, Final residual = 0.000101004, No Iterations 108
diagonal:  Solving for rho, Initial residual = 0, Final residual = 0, No Iterations 0
time step continuity errors : sum local = 2.60066e-08, global = -1.12577e-14, cumulative = 1.09012e-12
DICPCG:  Solving for p_rgh, Initial residual = 0.00539379, Final residual = 9.96514e-08, No Iterations 303
diagonal:  Solving for rho, Initial residual = 0, Final residual = 0, No Iterations 0
time step continuity errors : sum local = 1.51203e-08, global = -6.99844e-15, cumulative = 1.08312e-12
ExecutionTime = 108.61 s  ClockTime = 114 s

Courant Number mean: 0.00819945 max: 0.376026
deltaT = 0.120313
Time = 2

diagonal:  Solving for rho, Initial residual = 0, Final residual = 0, No Iterations 0
PIMPLE: iteration 1
DICPCG:  Solving for p_rgh, Initial residual = 0.00963137, Final residual = 9.19642e-05, No Iterations 109
diagonal:  Solving for rho, Initial residual = 0, Final residual = 0, No Iterations 0
time step continuity errors : sum local = 2.3749e-08, global = 6.50372e-15, cumulative = 1.08962e-12
DICPCG:  Solving for p_rgh, Initial residual = 0.00506815, Final residual = 8.49136e-08, No Iterations 304
diagonal:  Solving for rho, Initial residual = 0, Final residual = 0, No Iterations 0
time step continuity errors : sum local = 1.47331e-08, global = -9.1243e-15, cumulative = 1.0805e-12
ExecutionTime = 111.43 s  ClockTime = 117 s

Courant Number mean: 0.00806992 max: 0.353479
deltaT = 0.142857
Time = 2.14286

diagonal:  Solving for rho, Initial residual = 0, Final residual = 0, No Iterations 0
PIMPLE: iteration 1
DICPCG:  Solving for p_rgh, Initial residual = 0.00952012, Final residual = 9.39589e-05, No Iterations 109
diagonal:  Solving for rho, Initial residual = 0, Final residual = 0, No Iterations 0
time step continuity errors : sum local = 2.7955e-08, global = 4.62079e-14, cumulative = 1.1267e-12
DICPCG:  Solving for p_rgh, Initial residual = 0.00462318, Final residual = 8.62593e-08, No Iterations 304
diagonal:  Solving for rho, Initial residual = 0, Final residual = 0, No Iterations 0
time step continuity errors : sum local = 1.81676e-08, global = 1.83302e-14, cumulative = 1.14504e-12
ExecutionTime = 113.6 s  ClockTime = 120 s

Courant Number mean: 0.00943116 max: 0.394165
deltaT = 0.171429
Time = 2.31429

diagonal:  Solving for rho, Initial residual = 0, Final residual = 0, No Iterations 0
PIMPLE: iteration 1
DICPCG:  Solving for p_rgh, Initial residual = 0.00903707, Final residual = 8.90059e-05, No Iterations 112
diagonal:  Solving for rho, Initial residual = 0, Final residual = 0, No Iterations 0
time step continuity errors : sum local = 3.40773e-08, global = -1.11467e-14, cumulative = 1.13389e-12
DICPCG:  Solving for p_rgh, Initial residual = 0.00432266, Final residual = 9.6476e-08, No Iterations 303
diagonal:  Solving for rho, Initial residual = 0, Final residual = 0, No Iterations 0
time step continuity errors : sum local = 2.22951e-08, global = -8.49723e-15, cumulative = 1.12539e-12
ExecutionTime = 115.61 s  ClockTime = 122 s

Courant Number mean: 0.0111394 max: 0.444104
deltaT = 0.171429
Time = 2.48571

diagonal:  Solving for rho, Initial residual = 0, Final residual = 0, No Iterations 0
PIMPLE: iteration 1
DICPCG:  Solving for p_rgh, Initial residual = 0.00844865, Final residual = 8.13107e-05, No Iterations 109
diagonal:  Solving for rho, Initial residual = 0, Final residual = 0, No Iterations 0
time step continuity errors : sum local = 3.08809e-08, global = 4.08973e-15, cumulative = 1.12948e-12
DICPCG:  Solving for p_rgh, Initial residual = 0.00420266, Final residual = 9.73561e-08, No Iterations 301
diagonal:  Solving for rho, Initial residual = 0, Final residual = 0, No Iterations 0
time step continuity errors : sum local = 2.20196e-08, global = 3.24864e-14, cumulative = 1.16197e-12
ExecutionTime = 117.77 s  ClockTime = 124 s

Courant Number mean: 0.0109662 max: 0.417694
deltaT = 0.171429
Time = 2.65714

diagonal:  Solving for rho, Initial residual = 0, Final residual = 0, No Iterations 0
PIMPLE: iteration 1
DICPCG:  Solving for p_rgh, Initial residual = 0.00817614, Final residual = 8.12538e-05, No Iterations 109
diagonal:  Solving for rho, Initial residual = 0, Final residual = 0, No Iterations 0
time step continuity errors : sum local = 3.0681e-08, global = -3.3082e-14, cumulative = 1.12889e-12
DICPCG:  Solving for p_rgh, Initial residual = 0.00405527, Final residual = 9.8897e-08, No Iterations 300
diagonal:  Solving for rho, Initial residual = 0, Final residual = 0, No Iterations 0
time step continuity errors : sum local = 2.24504e-08, global = -5.31677e-14, cumulative = 1.07572e-12
ExecutionTime = 119.66 s  ClockTime = 126 s

Courant Number mean: 0.0107973 max: 0.393446
deltaT = 0.171429
Time = 2.82857

diagonal:  Solving for rho, Initial residual = 0, Final residual = 0, No Iterations 0
PIMPLE: iteration 1
DICPCG:  Solving for p_rgh, Initial residual = 0.00794641, Final residual = 7.56184e-05, No Iterations 109
diagonal:  Solving for rho, Initial residual = 0, Final residual = 0, No Iterations 0
time step continuity errors : sum local = 2.85403e-08, global = 3.81177e-14, cumulative = 1.11384e-12
DICPCG:  Solving for p_rgh, Initial residual = 0.00392793, Final residual = 9.30217e-08, No Iterations 303
diagonal:  Solving for rho, Initial residual = 0, Final residual = 0, No Iterations 0
time step continuity errors : sum local = 2.23622e-08, global = 1.78196e-14, cumulative = 1.13165e-12
ExecutionTime = 121.45 s  ClockTime = 128 s

Courant Number mean: 0.0106327 max: 0.371134
deltaT = 0.171429
Time = 3

diagonal:  Solving for rho, Initial residual = 0, Final residual = 0, No Iterations 0
PIMPLE: iteration 1
DICPCG:  Solving for p_rgh, Initial residual = 0.00773953, Final residual = 7.46886e-05, No Iterations 109
diagonal:  Solving for rho, Initial residual = 0, Final residual = 0, No Iterations 0
time step continuity errors : sum local = 2.78277e-08, global = -6.57851e-15, cumulative = 1.12508e-12
DICPCG:  Solving for p_rgh, Initial residual = 0.00379257, Final residual = 9.7093e-08, No Iterations 303
diagonal:  Solving for rho, Initial residual = 0, Final residual = 0, No Iterations 0
time step continuity errors : sum local = 2.23906e-08, global = 2.57183e-15, cumulative = 1.12765e-12
ExecutionTime = 124.21 s  ClockTime = 131 s

Courant Number mean: 0.0104721 max: 0.35052
deltaT = 0.2
Time = 3.2

diagonal:  Solving for rho, Initial residual = 0, Final residual = 0, No Iterations 0
PIMPLE: iteration 1
DICPCG:  Solving for p_rgh, Initial residual = 0.00767563, Final residual = 7.5667e-05, No Iterations 108
diagonal:  Solving for rho, Initial residual = 0, Final residual = 0, No Iterations 0
time step continuity errors : sum local = 3.23152e-08, global = 2.31386e-14, cumulative = 1.15079e-12
DICPCG:  Solving for p_rgh, Initial residual = 0.0035529, Final residual = 9.9881e-08, No Iterations 302
diagonal:  Solving for rho, Initial residual = 0, Final residual = 0, No Iterations 0
time step continuity errors : sum local = 2.66101e-08, global = 8.17754e-15, cumulative = 1.15896e-12
ExecutionTime = 126.27 s  ClockTime = 133 s

Courant Number mean: 0.0120336 max: 0.386348
deltaT = 0.2
Time = 3.4

diagonal:  Solving for rho, Initial residual = 0, Final residual = 0, No Iterations 0
PIMPLE: iteration 1
DICPCG:  Solving for p_rgh, Initial residual = 0.0072461, Final residual = 7.22493e-05, No Iterations 116
diagonal:  Solving for rho, Initial residual = 0, Final residual = 0, No Iterations 0
time step continuity errors : sum local = 3.25229e-08, global = 4.22244e-14, cumulative = 1.20119e-12
DICPCG:  Solving for p_rgh, Initial residual = 0.00348639, Final residual = 9.68037e-08, No Iterations 303
diagonal:  Solving for rho, Initial residual = 0, Final residual = 0, No Iterations 0
time step continuity errors : sum local = 2.67669e-08, global = 5.94625e-15, cumulative = 1.20713e-12
ExecutionTime = 128.18 s  ClockTime = 135 s

Courant Number mean: 0.0118539 max: 0.365432
deltaT = 0.2
Time = 3.6

diagonal:  Solving for rho, Initial residual = 0, Final residual = 0, No Iterations 0
PIMPLE: iteration 1
DICPCG:  Solving for p_rgh, Initial residual = 0.00695434, Final residual = 6.85161e-05, No Iterations 108
diagonal:  Solving for rho, Initial residual = 0, Final residual = 0, No Iterations 0
time step continuity errors : sum local = 2.9893e-08, global = 1.65068e-14, cumulative = 1.22364e-12
DICPCG:  Solving for p_rgh, Initial residual = 0.00332912, Final residual = 9.55849e-08, No Iterations 303
diagonal:  Solving for rho, Initial residual = 0, Final residual = 0, No Iterations 0
time step continuity errors : sum local = 2.69747e-08, global = 1.56559e-15, cumulative = 1.22521e-12
ExecutionTime = 129.93 s  ClockTime = 137 s

Courant Number mean: 0.0116782 max: 0.346111
deltaT = 0.2
Time = 3.8

diagonal:  Solving for rho, Initial residual = 0, Final residual = 0, No Iterations 0
PIMPLE: iteration 1
DICPCG:  Solving for p_rgh, Initial residual = 0.00684366, Final residual = 6.71004e-05, No Iterations 110
diagonal:  Solving for rho, Initial residual = 0, Final residual = 0, No Iterations 0
time step continuity errors : sum local = 2.97143e-08, global = -2.3414e-14, cumulative = 1.20179e-12
DICPCG:  Solving for p_rgh, Initial residual = 0.0032052, Final residual = 9.93084e-08, No Iterations 302
diagonal:  Solving for rho, Initial residual = 0, Final residual = 0, No Iterations 0
time step continuity errors : sum local = 2.67019e-08, global = -7.92437e-15, cumulative = 1.19387e-12
ExecutionTime = 131.69 s  ClockTime = 138 s

Courant Number mean: 0.0115064 max: 0.328238
deltaT = 0.2
Time = 4

diagonal:  Solving for rho, Initial residual = 0, Final residual = 0, No Iterations 0
PIMPLE: iteration 1
DICPCG:  Solving for p_rgh, Initial residual = 0.00672684, Final residual = 6.65581e-05, No Iterations 108
diagonal:  Solving for rho, Initial residual = 0, Final residual = 0, No Iterations 0
time step continuity errors : sum local = 2.88516e-08, global = -1.37126e-14, cumulative = 1.18016e-12
DICPCG:  Solving for p_rgh, Initial residual = 0.00312832, Final residual = 9.74953e-08, No Iterations 302
diagonal:  Solving for rho, Initial residual = 0, Final residual = 0, No Iterations 0
time step continuity errors : sum local = 2.62408e-08, global = -8.65546e-15, cumulative = 1.1715e-12
ExecutionTime = 134.56 s  ClockTime = 141 s

Courant Number mean: 0.0113382 max: 0.311684
deltaT = 0.25
Time = 4.25

diagonal:  Solving for rho, Initial residual = 0, Final residual = 0, No Iterations 0
PIMPLE: iteration 1
DICPCG:  Solving for p_rgh, Initial residual = 0.00679675, Final residual = 6.68297e-05, No Iterations 109
diagonal:  Solving for rho, Initial residual = 0, Final residual = 0, No Iterations 0
time step continuity errors : sum local = 3.62628e-08, global = -4.82182e-15, cumulative = 1.16668e-12
DICPCG:  Solving for p_rgh, Initial residual = 0.00288401, Final residual = 9.73175e-08, No Iterations 301
diagonal:  Solving for rho, Initial residual = 0, Final residual = 0, No Iterations 0
time step continuity errors : sum local = 3.39399e-08, global = -3.12678e-14, cumulative = 1.13541e-12
ExecutionTime = 136.24 s  ClockTime = 143 s

Courant Number mean: 0.0139657 max: 0.370129
deltaT = 0.25
Time = 4.5

diagonal:  Solving for rho, Initial residual = 0, Final residual = 0, No Iterations 0
PIMPLE: iteration 1
DICPCG:  Solving for p_rgh, Initial residual = 0.0063487, Final residual = 5.87937e-05, No Iterations 118
diagonal:  Solving for rho, Initial residual = 0, Final residual = 0, No Iterations 0
time step continuity errors : sum local = 3.55172e-08, global = 4.14178e-14, cumulative = 1.17683e-12
DICPCG:  Solving for p_rgh, Initial residual = 0.00286269, Final residual = 9.59237e-08, No Iterations 301
diagonal:  Solving for rho, Initial residual = 0, Final residual = 0, No Iterations 0
time step continuity errors : sum local = 3.27037e-08, global = 4.58925e-14, cumulative = 1.22272e-12
ExecutionTime = 138.15 s  ClockTime = 145 s

Courant Number mean: 0.0137634 max: 0.352463
deltaT = 0.25
Time = 4.75

diagonal:  Solving for rho, Initial residual = 0, Final residual = 0, No Iterations 0
PIMPLE: iteration 1
DICPCG:  Solving for p_rgh, Initial residual = 0.00629384, Final residual = 6.22793e-05, No Iterations 109
diagonal:  Solving for rho, Initial residual = 0, Final residual = 0, No Iterations 0
time step continuity errors : sum local = 3.53204e-08, global = -2.16813e-14, cumulative = 1.20104e-12
DICPCG:  Solving for p_rgh, Initial residual = 0.0028168, Final residual = 9.97816e-08, No Iterations 301
diagonal:  Solving for rho, Initial residual = 0, Final residual = 0, No Iterations 0
time step continuity errors : sum local = 3.3371e-08, global = -1.33705e-14, cumulative = 1.18767e-12
ExecutionTime = 139.91 s  ClockTime = 147 s

Courant Number mean: 0.0135653 max: 0.33646
deltaT = 0.25
Time = 5

diagonal:  Solving for rho, Initial residual = 0, Final residual = 0, No Iterations 0
PIMPLE: iteration 1
DICPCG:  Solving for p_rgh, Initial residual = 0.00629596, Final residual = 6.21368e-05, No Iterations 113
diagonal:  Solving for rho, Initial residual = 0, Final residual = 0, No Iterations 0
time step continuity errors : sum local = 3.53629e-08, global = -1.05179e-14, cumulative = 1.17715e-12
DICPCG:  Solving for p_rgh, Initial residual = 0.00280462, Final residual = 9.92793e-08, No Iterations 301
diagonal:  Solving for rho, Initial residual = 0, Final residual = 0, No Iterations 0
time step continuity errors : sum local = 3.28349e-08, global = -2.53781e-14, cumulative = 1.15177e-12
ExecutionTime = 142.69 s  ClockTime = 150 s

Courant Number mean: 0.0133712 max: 0.321526
deltaT = 0.333333
Time = 5.33333

diagonal:  Solving for rho, Initial residual = 0, Final residual = 0, No Iterations 0
PIMPLE: iteration 1
DICPCG:  Solving for p_rgh, Initial residual = 0.00637055, Final residual = 6.18076e-05, No Iterations 110
diagonal:  Solving for rho, Initial residual = 0, Final residual = 0, No Iterations 0
time step continuity errors : sum local = 4.62375e-08, global = 2.81138e-14, cumulative = 1.17989e-12
DICPCG:  Solving for p_rgh, Initial residual = 0.00258218, Final residual = 9.26342e-08, No Iterations 301
diagonal:  Solving for rho, Initial residual = 0, Final residual = 0, No Iterations 0
time step continuity errors : sum local = 4.50813e-08, global = 1.15e-14, cumulative = 1.19139e-12
ExecutionTime = 144.91 s  ClockTime = 152 s

Courant Number mean: 0.0175734 max: 0.409853
deltaT = 0.333333
Time = 5.66667

diagonal:  Solving for rho, Initial residual = 0, Final residual = 0, No Iterations 0
PIMPLE: iteration 1
DICPCG:  Solving for p_rgh, Initial residual = 0.00585184, Final residual = 5.7406e-05, No Iterations 201
diagonal:  Solving for rho, Initial residual = 0, Final residual = 0, No Iterations 0
time step continuity errors : sum local = 5.23349e-08, global = 1.96601e-14, cumulative = 1.21105e-12
DICPCG:  Solving for p_rgh, Initial residual = 0.00256857, Final residual = 8.9785e-08, No Iterations 301
diagonal:  Solving for rho, Initial residual = 0, Final residual = 0, No Iterations 0
time step continuity errors : sum local = 4.49143e-08, global = 1.66425e-14, cumulative = 1.22769e-12
ExecutionTime = 146.99 s  ClockTime = 154 s

Courant Number mean: 0.0173234 max: 0.392275
deltaT = 0.333333
Time = 6

diagonal:  Solving for rho, Initial residual = 0, Final residual = 0, No Iterations 0
PIMPLE: iteration 1
DICPCG:  Solving for p_rgh, Initial residual = 0.00575812, Final residual = 5.32167e-05, No Iterations 123
diagonal:  Solving for rho, Initial residual = 0, Final residual = 0, No Iterations 0
time step continuity errors : sum local = 4.67668e-08, global = 3.82633e-15, cumulative = 1.23152e-12
DICPCG:  Solving for p_rgh, Initial residual = 0.00252468, Final residual = 9.73136e-08, No Iterations 288
diagonal:  Solving for rho, Initial residual = 0, Final residual = 0, No Iterations 0
time step continuity errors : sum local = 4.34646e-08, global = 1.49189e-14, cumulative = 1.24644e-12
ExecutionTime = 149.65 s  ClockTime = 157 s

Courant Number mean: 0.0170778 max: 0.37586
deltaT = 0.333333
Time = 6.33333

diagonal:  Solving for rho, Initial residual = 0, Final residual = 0, No Iterations 0
PIMPLE: iteration 1
DICPCG:  Solving for p_rgh, Initial residual = 0.00570086, Final residual = 5.56609e-05, No Iterations 111
diagonal:  Solving for rho, Initial residual = 0, Final residual = 0, No Iterations 0
time step continuity errors : sum local = 4.53529e-08, global = 1.72947e-14, cumulative = 1.26373e-12
DICPCG:  Solving for p_rgh, Initial residual = 0.00248345, Final residual = 9.25636e-08, No Iterations 301
diagonal:  Solving for rho, Initial residual = 0, Final residual = 0, No Iterations 0
time step continuity errors : sum local = 4.42709e-08, global = -2.48762e-15, cumulative = 1.26124e-12
ExecutionTime = 151.51 s  ClockTime = 159 s

Courant Number mean: 0.0168365 max: 0.360502
deltaT = 0.333333
Time = 6.66667

diagonal:  Solving for rho, Initial residual = 0, Final residual = 0, No Iterations 0
PIMPLE: iteration 1
DICPCG:  Solving for p_rgh, Initial residual = 0.00563079, Final residual = 5.5582e-05, No Iterations 114
diagonal:  Solving for rho, Initial residual = 0, Final residual = 0, No Iterations 0
time step continuity errors : sum local = 4.60684e-08, global = -2.26721e-14, cumulative = 1.23857e-12
DICPCG:  Solving for p_rgh, Initial residual = 0.002455, Final residual = 8.9359e-08, No Iterations 301
diagonal:  Solving for rho, Initial residual = 0, Final residual = 0, No Iterations 0
time step continuity errors : sum local = 4.43108e-08, global = -1.07545e-14, cumulative = 1.22782e-12
ExecutionTime = 153.5 s  ClockTime = 161 s

Courant Number mean: 0.0165992 max: 0.350746
deltaT = 0.333333
Time = 7

diagonal:  Solving for rho, Initial residual = 0, Final residual = 0, No Iterations 0
PIMPLE: iteration 1
DICPCG:  Solving for p_rgh, Initial residual = 0.0056333, Final residual = 5.46482e-05, No Iterations 112
diagonal:  Solving for rho, Initial residual = 0, Final residual = 0, No Iterations 0
time step continuity errors : sum local = 4.47229e-08, global = -9.89828e-15, cumulative = 1.21792e-12
DICPCG:  Solving for p_rgh, Initial residual = 0.00245168, Final residual = 8.97209e-08, No Iterations 301
diagonal:  Solving for rho, Initial residual = 0, Final residual = 0, No Iterations 0
time step continuity errors : sum local = 4.48386e-08, global = -3.32839e-14, cumulative = 1.18463e-12
ExecutionTime = 156.36 s  ClockTime = 164 s

Courant Number mean: 0.0163656 max: 0.34709
deltaT = 0.333333
Time = 7.33333

diagonal:  Solving for rho, Initial residual = 0, Final residual = 0, No Iterations 0
PIMPLE: iteration 1
DICPCG:  Solving for p_rgh, Initial residual = 0.00557739, Final residual = 5.53771e-05, No Iterations 112
diagonal:  Solving for rho, Initial residual = 0, Final residual = 0, No Iterations 0
time step continuity errors : sum local = 4.44238e-08, global = 4.95471e-14, cumulative = 1.23418e-12
DICPCG:  Solving for p_rgh, Initial residual = 0.00242413, Final residual = 8.81331e-08, No Iterations 301
diagonal:  Solving for rho, Initial residual = 0, Final residual = 0, No Iterations 0
time step continuity errors : sum local = 4.38252e-08, global = 3.70686e-14, cumulative = 1.27125e-12
ExecutionTime = 158.21 s  ClockTime = 166 s

Courant Number mean: 0.0161353 max: 0.343389
deltaT = 0.333333
Time = 7.66667

diagonal:  Solving for rho, Initial residual = 0, Final residual = 0, No Iterations 0
PIMPLE: iteration 1
DICPCG:  Solving for p_rgh, Initial residual = 0.00549221, Final residual = 5.38896e-05, No Iterations 111
diagonal:  Solving for rho, Initial residual = 0, Final residual = 0, No Iterations 0
time step continuity errors : sum local = 4.39121e-08, global = 3.32041e-15, cumulative = 1.27457e-12
DICPCG:  Solving for p_rgh, Initial residual = 0.00238718, Final residual = 8.82861e-08, No Iterations 301
diagonal:  Solving for rho, Initial residual = 0, Final residual = 0, No Iterations 0
time step continuity errors : sum local = 4.41847e-08, global = -1.74326e-14, cumulative = 1.25714e-12
ExecutionTime = 160.06 s  ClockTime = 168 s

Courant Number mean: 0.0159088 max: 0.339661
deltaT = 0.333333
Time = 8

diagonal:  Solving for rho, Initial residual = 0, Final residual = 0, No Iterations 0
PIMPLE: iteration 1
DICPCG:  Solving for p_rgh, Initial residual = 0.00542006, Final residual = 5.41355e-05, No Iterations 110
diagonal:  Solving for rho, Initial residual = 0, Final residual = 0, No Iterations 0
time step continuity errors : sum local = 4.3439e-08, global = 4.24562e-14, cumulative = 1.29959e-12
DICPCG:  Solving for p_rgh, Initial residual = 0.00234803, Final residual = 9.83237e-08, No Iterations 300
diagonal:  Solving for rho, Initial residual = 0, Final residual = 0, No Iterations 0
time step continuity errors : sum local = 4.3543e-08, global = 9.51929e-15, cumulative = 1.30911e-12
ExecutionTime = 163.95 s  ClockTime = 172 s

Courant Number mean: 0.0156861 max: 0.336054
deltaT = 0.333333
Time = 8.33333

diagonal:  Solving for rho, Initial residual = 0, Final residual = 0, No Iterations 0
PIMPLE: iteration 1
DICPCG:  Solving for p_rgh, Initial residual = 0.00533973, Final residual = 5.00675e-05, No Iterations 111
diagonal:  Solving for rho, Initial residual = 0, Final residual = 0, No Iterations 0
time step continuity errors : sum local = 4.23737e-08, global = -7.78973e-15, cumulative = 1.30132e-12
DICPCG:  Solving for p_rgh, Initial residual = 0.00230993, Final residual = 8.51573e-08, No Iterations 300
diagonal:  Solving for rho, Initial residual = 0, Final residual = 0, No Iterations 0
time step continuity errors : sum local = 4.34557e-08, global = -5.72493e-16, cumulative = 1.30075e-12
ExecutionTime = 166.61 s  ClockTime = 175 s

Courant Number mean: 0.0154666 max: 0.332656
deltaT = 0.333333
Time = 8.66667

diagonal:  Solving for rho, Initial residual = 0, Final residual = 0, No Iterations 0
PIMPLE: iteration 1
DICPCG:  Solving for p_rgh, Initial residual = 0.00523182, Final residual = 5.10091e-05, No Iterations 109
diagonal:  Solving for rho, Initial residual = 0, Final residual = 0, No Iterations 0
time step continuity errors : sum local = 4.16928e-08, global = 5.85419e-15, cumulative = 1.3066e-12
DICPCG:  Solving for p_rgh, Initial residual = 0.00227778, Final residual = 9.26206e-08, No Iterations 287
diagonal:  Solving for rho, Initial residual = 0, Final residual = 0, No Iterations 0
time step continuity errors : sum local = 4.25118e-08, global = -9.66002e-15, cumulative = 1.29694e-12
ExecutionTime = 168.99 s  ClockTime = 177 s

Courant Number mean: 0.0152505 max: 0.329273
deltaT = 0.333333
Time = 9

diagonal:  Solving for rho, Initial residual = 0, Final residual = 0, No Iterations 0
PIMPLE: iteration 1
DICPCG:  Solving for p_rgh, Initial residual = 0.0051725, Final residual = 4.99674e-05, No Iterations 109
diagonal:  Solving for rho, Initial residual = 0, Final residual = 0, No Iterations 0
time step continuity errors : sum local = 4.12417e-08, global = 5.46945e-14, cumulative = 1.35164e-12
DICPCG:  Solving for p_rgh, Initial residual = 0.00225751, Final residual = 9.87342e-08, No Iterations 298
diagonal:  Solving for rho, Initial residual = 0, Final residual = 0, No Iterations 0
time step continuity errors : sum local = 4.308e-08, global = 1.26236e-14, cumulative = 1.36426e-12
ExecutionTime = 172.54 s  ClockTime = 181 s

Courant Number mean: 0.0150376 max: 0.325918
deltaT = 0.333333
Time = 9.33333

diagonal:  Solving for rho, Initial residual = 0, Final residual = 0, No Iterations 0
PIMPLE: iteration 1
DICPCG:  Solving for p_rgh, Initial residual = 0.00510565, Final residual = 4.87729e-05, No Iterations 109
diagonal:  Solving for rho, Initial residual = 0, Final residual = 0, No Iterations 0
time step continuity errors : sum local = 4.05849e-08, global = 6.48076e-15, cumulative = 1.37074e-12
DICPCG:  Solving for p_rgh, Initial residual = 0.00223916, Final residual = 9.53814e-08, No Iterations 299
diagonal:  Solving for rho, Initial residual = 0, Final residual = 0, No Iterations 0
time step continuity errors : sum local = 4.23222e-08, global = 2.45781e-14, cumulative = 1.39532e-12
ExecutionTime = 174.95 s  ClockTime = 183 s

Courant Number mean: 0.0148281 max: 0.322561
deltaT = 0.333333
Time = 9.66667

diagonal:  Solving for rho, Initial residual = 0, Final residual = 0, No Iterations 0
PIMPLE: iteration 1
DICPCG:  Solving for p_rgh, Initial residual = 0.00501053, Final residual = 4.9506e-05, No Iterations 108
diagonal:  Solving for rho, Initial residual = 0, Final residual = 0, No Iterations 0
time step continuity errors : sum local = 4.05189e-08, global = -2.50101e-14, cumulative = 1.37031e-12
DICPCG:  Solving for p_rgh, Initial residual = 0.00221204, Final residual = 8.78667e-08, No Iterations 300
diagonal:  Solving for rho, Initial residual = 0, Final residual = 0, No Iterations 0
time step continuity errors : sum local = 4.27171e-08, global = -2.46025e-14, cumulative = 1.34571e-12
ExecutionTime = 177.66 s  ClockTime = 186 s

Courant Number mean: 0.0146218 max: 0.319198
deltaT = 0.333333
Time = 10

diagonal:  Solving for rho, Initial residual = 0, Final residual = 0, No Iterations 0
PIMPLE: iteration 1
DICPCG:  Solving for p_rgh, Initial residual = 0.00497431, Final residual = 4.92061e-05, No Iterations 106
diagonal:  Solving for rho, Initial residual = 0, Final residual = 0, No Iterations 0
time step continuity errors : sum local = 4.02942e-08, global = 1.75701e-14, cumulative = 1.36328e-12
DICPCG:  Solving for p_rgh, Initial residual = 0.00218956, Final residual = 8.61745e-08, No Iterations 300
diagonal:  Solving for rho, Initial residual = 0, Final residual = 0, No Iterations 0
time step continuity errors : sum local = 4.31602e-08, global = -1.78411e-14, cumulative = 1.34544e-12
ExecutionTime = 180.6 s  ClockTime = 189 s

Courant Number mean: 0.0144188 max: 0.315841
deltaT = 0.333333
Time = 10.3333

diagonal:  Solving for rho, Initial residual = 0, Final residual = 0, No Iterations 0
PIMPLE: iteration 1
DICPCG:  Solving for p_rgh, Initial residual = 0.00489671, Final residual = 4.89079e-05, No Iterations 106
diagonal:  Solving for rho, Initial residual = 0, Final residual = 0, No Iterations 0
time step continuity errors : sum local = 3.97299e-08, global = 2.49163e-15, cumulative = 1.34793e-12
DICPCG:  Solving for p_rgh, Initial residual = 0.002162, Final residual = 8.74108e-08, No Iterations 299
diagonal:  Solving for rho, Initial residual = 0, Final residual = 0, No Iterations 0
time step continuity errors : sum local = 4.39373e-08, global = 1.79719e-14, cumulative = 1.3659e-12
ExecutionTime = 183.17 s  ClockTime = 192 s

Courant Number mean: 0.0142187 max: 0.312481
deltaT = 0.333333
Time = 10.6667

diagonal:  Solving for rho, Initial residual = 0, Final residual = 0, No Iterations 0
PIMPLE: iteration 1
DICPCG:  Solving for p_rgh, Initial residual = 0.00484808, Final residual = 4.83457e-05, No Iterations 105
diagonal:  Solving for rho, Initial residual = 0, Final residual = 0, No Iterations 0
time step continuity errors : sum local = 3.89222e-08, global = 7.27529e-15, cumulative = 1.37318e-12
DICPCG:  Solving for p_rgh, Initial residual = 0.00214232, Final residual = 9.09154e-08, No Iterations 297
diagonal:  Solving for rho, Initial residual = 0, Final residual = 0, No Iterations 0
time step continuity errors : sum local = 4.35224e-08, global = 2.71019e-15, cumulative = 1.37589e-12
ExecutionTime = 185.59 s  ClockTime = 194 s

Courant Number mean: 0.0140216 max: 0.309112
deltaT = 0.333333
Time = 11

diagonal:  Solving for rho, Initial residual = 0, Final residual = 0, No Iterations 0
PIMPLE: iteration 1
DICPCG:  Solving for p_rgh, Initial residual = 0.00485466, Final residual = 4.67152e-05, No Iterations 105
diagonal:  Solving for rho, Initial residual = 0, Final residual = 0, No Iterations 0
time step continuity errors : sum local = 3.83172e-08, global = -1.01257e-14, cumulative = 1.36576e-12
DICPCG:  Solving for p_rgh, Initial residual = 0.0021314, Final residual = 9.56749e-08, No Iterations 296
diagonal:  Solving for rho, Initial residual = 0, Final residual = 0, No Iterations 0
time step continuity errors : sum local = 4.42497e-08, global = 1.23131e-14, cumulative = 1.37807e-12
ExecutionTime = 188.76 s  ClockTime = 197 s

Courant Number mean: 0.0138274 max: 0.305762
deltaT = 0.333333
Time = 11.3333

diagonal:  Solving for rho, Initial residual = 0, Final residual = 0, No Iterations 0
PIMPLE: iteration 1
DICPCG:  Solving for p_rgh, Initial residual = 0.00481526, Final residual = 4.68814e-05, No Iterations 104
diagonal:  Solving for rho, Initial residual = 0, Final residual = 0, No Iterations 0
time step continuity errors : sum local = 3.78483e-08, global = -6.65053e-15, cumulative = 1.37142e-12
DICPCG:  Solving for p_rgh, Initial residual = 0.00211404, Final residual = 8.35641e-08, No Iterations 299
diagonal:  Solving for rho, Initial residual = 0, Final residual = 0, No Iterations 0
time step continuity errors : sum local = 4.30811e-08, global = -1.53533e-14, cumulative = 1.35607e-12
ExecutionTime = 191.32 s  ClockTime = 200 s

Courant Number mean: 0.013636 max: 0.302416
deltaT = 0.333333
Time = 11.6667

diagonal:  Solving for rho, Initial residual = 0, Final residual = 0, No Iterations 0
PIMPLE: iteration 1
DICPCG:  Solving for p_rgh, Initial residual = 0.00474707, Final residual = 4.66701e-05, No Iterations 104
diagonal:  Solving for rho, Initial residual = 0, Final residual = 0, No Iterations 0
time step continuity errors : sum local = 3.79409e-08, global = 2.81278e-15, cumulative = 1.35888e-12
DICPCG:  Solving for p_rgh, Initial residual = 0.00209033, Final residual = 9.15251e-08, No Iterations 300
diagonal:  Solving for rho, Initial residual = 0, Final residual = 0, No Iterations 0
time step continuity errors : sum local = 4.34545e-08, global = 4.20562e-15, cumulative = 1.36309e-12
ExecutionTime = 193.37 s  ClockTime = 202 s

Courant Number mean: 0.0134475 max: 0.299072
deltaT = 0.333333
Time = 12

diagonal:  Solving for rho, Initial residual = 0, Final residual = 0, No Iterations 0
PIMPLE: iteration 1
DICPCG:  Solving for p_rgh, Initial residual = 0.00470336, Final residual = 4.6478e-05, No Iterations 103
diagonal:  Solving for rho, Initial residual = 0, Final residual = 0, No Iterations 0
time step continuity errors : sum local = 3.75227e-08, global = -7.87799e-15, cumulative = 1.35521e-12
DICPCG:  Solving for p_rgh, Initial residual = 0.00207005, Final residual = 9.01659e-08, No Iterations 301
diagonal:  Solving for rho, Initial residual = 0, Final residual = 0, No Iterations 0
time step continuity errors : sum local = 4.37424e-08, global = -3.06996e-14, cumulative = 1.32451e-12
ExecutionTime = 196.38 s  ClockTime = 205 s

Courant Number mean: 0.0132619 max: 0.295744
deltaT = 0.333333
Time = 12.3333

diagonal:  Solving for rho, Initial residual = 0, Final residual = 0, No Iterations 0
PIMPLE: iteration 1
DICPCG:  Solving for p_rgh, Initial residual = 0.0046772, Final residual = 4.60473e-05, No Iterations 99
diagonal:  Solving for rho, Initial residual = 0, Final residual = 0, No Iterations 0
time step continuity errors : sum local = 3.68433e-08, global = 2.19195e-14, cumulative = 1.34643e-12
DICPCG:  Solving for p_rgh, Initial residual = 0.0020529, Final residual = 9.57472e-08, No Iterations 301
diagonal:  Solving for rho, Initial residual = 0, Final residual = 0, No Iterations 0
time step continuity errors : sum local = 4.3453e-08, global = 1.71178e-14, cumulative = 1.36355e-12
ExecutionTime = 198.53 s  ClockTime = 207 s

Courant Number mean: 0.0130789 max: 0.29245
deltaT = 0.333333
Time = 12.6667

diagonal:  Solving for rho, Initial residual = 0, Final residual = 0, No Iterations 0
PIMPLE: iteration 1
DICPCG:  Solving for p_rgh, Initial residual = 0.00461972, Final residual = 4.42175e-05, No Iterations 99
diagonal:  Solving for rho, Initial residual = 0, Final residual = 0, No Iterations 0
time step continuity errors : sum local = 3.60736e-08, global = 3.69221e-14, cumulative = 1.40047e-12
DICPCG:  Solving for p_rgh, Initial residual = 0.00202085, Final residual = 9.83172e-08, No Iterations 301
diagonal:  Solving for rho, Initial residual = 0, Final residual = 0, No Iterations 0
time step continuity errors : sum local = 4.34642e-08, global = -1.20685e-14, cumulative = 1.3884e-12
ExecutionTime = 200.59 s  ClockTime = 209 s

Courant Number mean: 0.0128984 max: 0.28942
deltaT = 0.333333
Time = 13

diagonal:  Solving for rho, Initial residual = 0, Final residual = 0, No Iterations 0
PIMPLE: iteration 1
DICPCG:  Solving for p_rgh, Initial residual = 0.0045493, Final residual = 4.30355e-05, No Iterations 99
diagonal:  Solving for rho, Initial residual = 0, Final residual = 0, No Iterations 0
time step continuity errors : sum local = 3.50741e-08, global = -3.11371e-15, cumulative = 1.38529e-12
DICPCG:  Solving for p_rgh, Initial residual = 0.00199396, Final residual = 9.93193e-08, No Iterations 301
diagonal:  Solving for rho, Initial residual = 0, Final residual = 0, No Iterations 0
time step continuity errors : sum local = 4.39144e-08, global = 9.72635e-16, cumulative = 1.38626e-12
ExecutionTime = 203.53 s  ClockTime = 212 s

Courant Number mean: 0.0127202 max: 0.286431
deltaT = 0.333333
Time = 13.3333

diagonal:  Solving for rho, Initial residual = 0, Final residual = 0, No Iterations 0
PIMPLE: iteration 1
DICPCG:  Solving for p_rgh, Initial residual = 0.00446909, Final residual = 4.22173e-05, No Iterations 99
diagonal:  Solving for rho, Initial residual = 0, Final residual = 0, No Iterations 0
time step continuity errors : sum local = 3.49652e-08, global = 4.5981e-14, cumulative = 1.43224e-12
[...]
time step continuity errors : sum local = 3.73378e-08, global = -3.86058e-14, cumulative = 1.94602e-12
DICPCG:  Solving for p_rgh, Initial residual = 0.000293629, Final residual = 9.19878e-08, No Iterations 289
diagonal:  Solving for rho, Initial residual = 0, Final residual = 0, No Iterations 0
time step continuity errors : sum local = 5.96287e-08, global = -2.11263e-14, cumulative = 1.92489e-12
ExecutionTime = 566.85 s  ClockTime = 589 s

Courant Number mean: 0.005251 max: 0.0883387
deltaT = 0.5
Time = 88.5

diagonal:  Solving for rho, Initial residual = 0, Final residual = 0, No Iterations 0
PIMPLE: iteration 1
DICPCG:  Solving for p_rgh, Initial residual = 0.000417929, Final residual = 4.12639e-06, No Iterations 178
diagonal:  Solving for rho, Initial residual = 0, Final residual = 0, No Iterations 0
time step continuity errors : sum local = 4.77775e-08, global = 2.04972e-14, cumulative = 1.94539e-12
DICPCG:  Solving for p_rgh, Initial residual = 0.000321117, Final residual = 9.19437e-08, No Iterations 289
diagonal:  Solving for rho, Initial residual = 0, Final residual = 0, No Iterations 0
time step continuity errors : sum local = 6.04676e-08, global = 4.06354e-14, cumulative = 1.98603e-12
ExecutionTime = 569.21 s  ClockTime = 592 s

Courant Number mean: 0.00523319 max: 0.0874865
deltaT = 0.5
Time = 89

diagonal:  Solving for rho, Initial residual = 0, Final residual = 0, No Iterations 0
PIMPLE: iteration 1
DICPCG:  Solving for p_rgh, Initial residual = 0.000415917, Final residual = 4.14346e-06, No Iterations 181
diagonal:  Solving for rho, Initial residual = 0, Final residual = 0, No Iterations 0
time step continuity errors : sum local = 5.10924e-08, global = -3.80592e-14, cumulative = 1.94797e-12
DICPCG:  Solving for p_rgh, Initial residual = 0.000330111, Final residual = 9.15162e-08, No Iterations 289
diagonal:  Solving for rho, Initial residual = 0, Final residual = 0, No Iterations 0
time step continuity errors : sum local = 5.97649e-08, global = 8.54372e-15, cumulative = 1.95651e-12
ExecutionTime = 572.6 s  ClockTime = 596 s

Courant Number mean: 0.00521556 max: 0.0866416
deltaT = 0.5
Time = 89.5

diagonal:  Solving for rho, Initial residual = 0, Final residual = 0, No Iterations 0
PIMPLE: iteration 1
DICPCG:  Solving for p_rgh, Initial residual = 0.000413213, Final residual = 4.00712e-06, No Iterations 198
diagonal:  Solving for rho, Initial residual = 0, Final residual = 0, No Iterations 0
time step continuity errors : sum local = 5.35356e-08, global = 7.56836e-15, cumulative = 1.96408e-12
DICPCG:  Solving for p_rgh, Initial residual = 0.000336658, Final residual = 9.59073e-08, No Iterations 289
diagonal:  Solving for rho, Initial residual = 0, Final residual = 0, No Iterations 0
time step continuity errors : sum local = 6.09435e-08, global = -1.51959e-14, cumulative = 1.94888e-12
ExecutionTime = 575.34 s  ClockTime = 599 s

Courant Number mean: 0.00519808 max: 0.0858069
deltaT = 0.5
Time = 90

diagonal:  Solving for rho, Initial residual = 0, Final residual = 0, No Iterations 0
PIMPLE: iteration 1
DICPCG:  Solving for p_rgh, Initial residual = 0.000414173, Final residual = 4.0998e-06, No Iterations 188
diagonal:  Solving for rho, Initial residual = 0, Final residual = 0, No Iterations 0
time step continuity errors : sum local = 5.33241e-08, global = 1.61676e-14, cumulative = 1.96505e-12
DICPCG:  Solving for p_rgh, Initial residual = 0.000332431, Final residual = 9.39968e-08, No Iterations 289
diagonal:  Solving for rho, Initial residual = 0, Final residual = 0, No Iterations 0
time step continuity errors : sum local = 6.08298e-08, global = 1.84348e-14, cumulative = 1.98349e-12
ExecutionTime = 578.99 s  ClockTime = 603 s

Courant Number mean: 0.00518077 max: 0.0849786
deltaT = 0.5
Time = 90.5

diagonal:  Solving for rho, Initial residual = 0, Final residual = 0, No Iterations 0
PIMPLE: iteration 1
DICPCG:  Solving for p_rgh, Initial residual = 0.000410399, Final residual = 3.98471e-06, No Iterations 204
diagonal:  Solving for rho, Initial residual = 0, Final residual = 0, No Iterations 0
time step continuity errors : sum local = 5.32265e-08, global = 1.41658e-14, cumulative = 1.99765e-12
DICPCG:  Solving for p_rgh, Initial residual = 0.000332662, Final residual = 9.81942e-08, No Iterations 289
diagonal:  Solving for rho, Initial residual = 0, Final residual = 0, No Iterations 0
time step continuity errors : sum local = 6.03254e-08, global = -4.04845e-15, cumulative = 1.9936e-12
ExecutionTime = 581.01 s  ClockTime = 605 s

Courant Number mean: 0.00516362 max: 0.0841601
deltaT = 0.5
Time = 91

diagonal:  Solving for rho, Initial residual = 0, Final residual = 0, No Iterations 0
PIMPLE: iteration 1
DICPCG:  Solving for p_rgh, Initial residual = 0.000407859, Final residual = 3.96611e-06, No Iterations 172
diagonal:  Solving for rho, Initial residual = 0, Final residual = 0, No Iterations 0
time step continuity errors : sum local = 4.88487e-08, global = 1.50779e-14, cumulative = 2.00868e-12
DICPCG:  Solving for p_rgh, Initial residual = 0.000318169, Final residual = 9.1325e-08, No Iterations 289
diagonal:  Solving for rho, Initial residual = 0, Final residual = 0, No Iterations 0
time step continuity errors : sum local = 5.98038e-08, global = 2.83101e-14, cumulative = 2.03699e-12
ExecutionTime = 584.03 s  ClockTime = 608 s

Courant Number mean: 0.00514663 max: 0.0833509
deltaT = 0.5
Time = 91.5

diagonal:  Solving for rho, Initial residual = 0, Final residual = 0, No Iterations 0
PIMPLE: iteration 1
DICPCG:  Solving for p_rgh, Initial residual = 0.000403084, Final residual = 3.82028e-06, No Iterations 187
diagonal:  Solving for rho, Initial residual = 0, Final residual = 0, No Iterations 0
time step continuity errors : sum local = 5.15263e-08, global = -7.01777e-14, cumulative = 1.96681e-12
DICPCG:  Solving for p_rgh, Initial residual = 0.000323761, Final residual = 9.11401e-08, No Iterations 289
diagonal:  Solving for rho, Initial residual = 0, Final residual = 0, No Iterations 0
time step continuity errors : sum local = 5.9896e-08, global = -2.89955e-14, cumulative = 1.93782e-12
ExecutionTime = 586.24 s  ClockTime = 610 s

Courant Number mean: 0.00512979 max: 0.0825502
deltaT = 0.5
Time = 92

diagonal:  Solving for rho, Initial residual = 0, Final residual = 0, No Iterations 0
PIMPLE: iteration 1
DICPCG:  Solving for p_rgh, Initial residual = 0.000401791, Final residual = 3.98926e-06, No Iterations 202
diagonal:  Solving for rho, Initial residual = 0, Final residual = 0, No Iterations 0
time step continuity errors : sum local = 5.4082e-08, global = 1.16141e-14, cumulative = 1.94943e-12
DICPCG:  Solving for p_rgh, Initial residual = 0.000329856, Final residual = 9.26663e-08, No Iterations 289
diagonal:  Solving for rho, Initial residual = 0, Final residual = 0, No Iterations 0
time step continuity errors : sum local = 5.9725e-08, global = -2.56664e-14, cumulative = 1.92376e-12
ExecutionTime = 589.77 s  ClockTime = 614 s

Courant Number mean: 0.0051131 max: 0.0817565
deltaT = 0.5
Time = 92.5

diagonal:  Solving for rho, Initial residual = 0, Final residual = 0, No Iterations 0
PIMPLE: iteration 1
DICPCG:  Solving for p_rgh, Initial residual = 0.00039846, Final residual = 3.96527e-06, No Iterations 195
diagonal:  Solving for rho, Initial residual = 0, Final residual = 0, No Iterations 0
time step continuity errors : sum local = 5.39523e-08, global = 4.52003e-14, cumulative = 1.96897e-12
DICPCG:  Solving for p_rgh, Initial residual = 0.000329224, Final residual = 9.29281e-08, No Iterations 289
diagonal:  Solving for rho, Initial residual = 0, Final residual = 0, No Iterations 0
time step continuity errors : sum local = 5.97472e-08, global = 6.11863e-15, cumulative = 1.97508e-12
ExecutionTime = 592.44 s  ClockTime = 617 s

Courant Number mean: 0.00509658 max: 0.0809711
deltaT = 0.5
Time = 93

diagonal:  Solving for rho, Initial residual = 0, Final residual = 0, No Iterations 0
PIMPLE: iteration 1
DICPCG:  Solving for p_rgh, Initial residual = 0.000395757, Final residual = 3.74429e-06, No Iterations 97
diagonal:  Solving for rho, Initial residual = 0, Final residual = 0, No Iterations 0
time step continuity errors : sum local = 3.74176e-08, global = -4.08137e-15, cumulative = 1.971e-12
DICPCG:  Solving for p_rgh, Initial residual = 0.00027641, Final residual = 8.65302e-08, No Iterations 289
diagonal:  Solving for rho, Initial residual = 0, Final residual = 0, No Iterations 0
time step continuity errors : sum local = 6.07642e-08, global = -3.15738e-14, cumulative = 1.93943e-12
ExecutionTime = 595.64 s  ClockTime = 621 s

Courant Number mean: 0.00508018 max: 0.0801953
deltaT = 0.5
Time = 93.5

diagonal:  Solving for rho, Initial residual = 0, Final residual = 0, No Iterations 0
PIMPLE: iteration 1
DICPCG:  Solving for p_rgh, Initial residual = 0.000399671, Final residual = 3.92857e-06, No Iterations 191
diagonal:  Solving for rho, Initial residual = 0, Final residual = 0, No Iterations 0
time step continuity errors : sum local = 5.26962e-08, global = 5.16324e-14, cumulative = 1.99106e-12
DICPCG:  Solving for p_rgh, Initial residual = 0.00032288, Final residual = 9.94417e-08, No Iterations 271
diagonal:  Solving for rho, Initial residual = 0, Final residual = 0, No Iterations 0
time step continuity errors : sum local = 5.81934e-08, global = 4.45225e-14, cumulative = 2.03558e-12
ExecutionTime = 598.38 s  ClockTime = 624 s

Courant Number mean: 0.00506393 max: 0.0794258
deltaT = 0.5
Time = 94

diagonal:  Solving for rho, Initial residual = 0, Final residual = 0, No Iterations 0
PIMPLE: iteration 1
DICPCG:  Solving for p_rgh, Initial residual = 0.000388416, Final residual = 3.67563e-06, No Iterations 195
diagonal:  Solving for rho, Initial residual = 0, Final residual = 0, No Iterations 0
time step continuity errors : sum local = 5.36329e-08, global = 7.32538e-14, cumulative = 2.10884e-12
DICPCG:  Solving for p_rgh, Initial residual = 0.000323806, Final residual = 9.00389e-08, No Iterations 267
diagonal:  Solving for rho, Initial residual = 0, Final residual = 0, No Iterations 0
time step continuity errors : sum local = 5.96121e-08, global = 5.10248e-14, cumulative = 2.15986e-12
ExecutionTime = 602.13 s  ClockTime = 628 s

Courant Number mean: 0.00504779 max: 0.0786664
deltaT = 0.5
Time = 94.5

diagonal:  Solving for rho, Initial residual = 0, Final residual = 0, No Iterations 0
PIMPLE: iteration 1
DICPCG:  Solving for p_rgh, Initial residual = 0.00038974, Final residual = 3.76146e-06, No Iterations 189
diagonal:  Solving for rho, Initial residual = 0, Final residual = 0, No Iterations 0
time step continuity errors : sum local = 5.30163e-08, global = -3.08058e-14, cumulative = 2.12906e-12
DICPCG:  Solving for p_rgh, Initial residual = 0.000320493, Final residual = 9.60288e-08, No Iterations 282
diagonal:  Solving for rho, Initial residual = 0, Final residual = 0, No Iterations 0
time step continuity errors : sum local = 5.98924e-08, global = -6.75684e-14, cumulative = 2.06149e-12
ExecutionTime = 604.78 s  ClockTime = 631 s

Courant Number mean: 0.0050318 max: 0.0779135
deltaT = 0.5
Time = 95

diagonal:  Solving for rho, Initial residual = 0, Final residual = 0, No Iterations 0
PIMPLE: iteration 1
DICPCG:  Solving for p_rgh, Initial residual = 0.000388229, Final residual = 3.76401e-06, No Iterations 187
diagonal:  Solving for rho, Initial residual = 0, Final residual = 0, No Iterations 0
time step continuity errors : sum local = 5.31497e-08, global = 4.46508e-14, cumulative = 2.10614e-12
DICPCG:  Solving for p_rgh, Initial residual = 0.00031932, Final residual = 9.86686e-08, No Iterations 287
diagonal:  Solving for rho, Initial residual = 0, Final residual = 0, No Iterations 0
time step continuity errors : sum local = 5.99664e-08, global = 1.23066e-14, cumulative = 2.11845e-12
ExecutionTime = 608.4 s  ClockTime = 635 s

Courant Number mean: 0.00501591 max: 0.0771691
deltaT = 0.5
Time = 95.5

diagonal:  Solving for rho, Initial residual = 0, Final residual = 0, No Iterations 0
PIMPLE: iteration 1
DICPCG:  Solving for p_rgh, Initial residual = 0.000387336, Final residual = 3.71508e-06, No Iterations 185
diagonal:  Solving for rho, Initial residual = 0, Final residual = 0, No Iterations 0
time step continuity errors : sum local = 5.24096e-08, global = 4.63312e-15, cumulative = 2.12308e-12
DICPCG:  Solving for p_rgh, Initial residual = 0.00031647, Final residual = 9.03958e-08, No Iterations 289
diagonal:  Solving for rho, Initial residual = 0, Final residual = 0, No Iterations 0
time step continuity errors : sum local = 5.96697e-08, global = 6.89196e-16, cumulative = 2.12377e-12
ExecutionTime = 610.71 s  ClockTime = 637 s

Courant Number mean: 0.00500015 max: 0.0764322
deltaT = 0.5
Time = 96

diagonal:  Solving for rho, Initial residual = 0, Final residual = 0, No Iterations 0
PIMPLE: iteration 1
DICPCG:  Solving for p_rgh, Initial residual = 0.000386562, Final residual = 3.82858e-06, No Iterations 193
diagonal:  Solving for rho, Initial residual = 0, Final residual = 0, No Iterations 0
time step continuity errors : sum local = 5.3541e-08, global = 3.45558e-14, cumulative = 2.15832e-12
DICPCG:  Solving for p_rgh, Initial residual = 0.000318598, Final residual = 9.19544e-08, No Iterations 268
diagonal:  Solving for rho, Initial residual = 0, Final residual = 0, No Iterations 0
time step continuity errors : sum local = 6.01935e-08, global = 4.61292e-14, cumulative = 2.20445e-12
ExecutionTime = 613.73 s  ClockTime = 640 s

Courant Number mean: 0.0049845 max: 0.0757032
deltaT = 0.5
Time = 96.5

diagonal:  Solving for rho, Initial residual = 0, Final residual = 0, No Iterations 0
PIMPLE: iteration 1
DICPCG:  Solving for p_rgh, Initial residual = 0.000386012, Final residual = 3.79329e-06, No Iterations 192
diagonal:  Solving for rho, Initial residual = 0, Final residual = 0, No Iterations 0
time step continuity errors : sum local = 5.42277e-08, global = -2.78714e-14, cumulative = 2.17658e-12
DICPCG:  Solving for p_rgh, Initial residual = 0.000318337, Final residual = 9.93889e-08, No Iterations 288
diagonal:  Solving for rho, Initial residual = 0, Final residual = 0, No Iterations 0
time step continuity errors : sum local = 5.94695e-08, global = -9.18771e-14, cumulative = 2.0847e-12
ExecutionTime = 616.03 s  ClockTime = 642 s

Courant Number mean: 0.00496898 max: 0.0749807
deltaT = 0.5
Time = 97

diagonal:  Solving for rho, Initial residual = 0, Final residual = 0, No Iterations 0
PIMPLE: iteration 1
DICPCG:  Solving for p_rgh, Initial residual = 0.000379883, Final residual = 3.71319e-06, No Iterations 205
diagonal:  Solving for rho, Initial residual = 0, Final residual = 0, No Iterations 0
time step continuity errors : sum local = 5.43007e-08, global = 5.31656e-14, cumulative = 2.13787e-12
DICPCG:  Solving for p_rgh, Initial residual = 0.000318684, Final residual = 9.5733e-08, No Iterations 286
diagonal:  Solving for rho, Initial residual = 0, Final residual = 0, No Iterations 0
time step continuity errors : sum local = 5.77723e-08, global = 7.82072e-15, cumulative = 2.14569e-12
ExecutionTime = 619.24 s  ClockTime = 646 s

Courant Number mean: 0.00495359 max: 0.0742654
deltaT = 0.5
Time = 97.5

diagonal:  Solving for rho, Initial residual = 0, Final residual = 0, No Iterations 0
PIMPLE: iteration 1
DICPCG:  Solving for p_rgh, Initial residual = 0.000373219, Final residual = 3.62529e-06, No Iterations 141
diagonal:  Solving for rho, Initial residual = 0, Final residual = 0, No Iterations 0
time step continuity errors : sum local = 4.31026e-08, global = 4.93653e-14, cumulative = 2.19506e-12
DICPCG:  Solving for p_rgh, Initial residual = 0.000282455, Final residual = 9.40028e-08, No Iterations 287
diagonal:  Solving for rho, Initial residual = 0, Final residual = 0, No Iterations 0
time step continuity errors : sum local = 5.8255e-08, global = 2.75887e-14, cumulative = 2.22264e-12
ExecutionTime = 621.8 s  ClockTime = 649 s

Courant Number mean: 0.00493827 max: 0.0735606
deltaT = 0.5
Time = 98

diagonal:  Solving for rho, Initial residual = 0, Final residual = 0, No Iterations 0
PIMPLE: iteration 1
DICPCG:  Solving for p_rgh, Initial residual = 0.000371541, Final residual = 3.71189e-06, No Iterations 214
diagonal:  Solving for rho, Initial residual = 0, Final residual = 0, No Iterations 0
time step continuity errors : sum local = 5.7202e-08, global = -1.11548e-14, cumulative = 2.21149e-12
DICPCG:  Solving for p_rgh, Initial residual = 0.000326428, Final residual = 8.3754e-08, No Iterations 289
diagonal:  Solving for rho, Initial residual = 0, Final residual = 0, No Iterations 0
time step continuity errors : sum local = 5.89675e-08, global = 6.19009e-14, cumulative = 2.27339e-12
ExecutionTime = 625.61 s  ClockTime = 653 s

Courant Number mean: 0.00492309 max: 0.0728603
deltaT = 0.5
Time = 98.5

diagonal:  Solving for rho, Initial residual = 0, Final residual = 0, No Iterations 0
PIMPLE: iteration 1
DICPCG:  Solving for p_rgh, Initial residual = 0.000374388, Final residual = 3.73476e-06, No Iterations 197
diagonal:  Solving for rho, Initial residual = 0, Final residual = 0, No Iterations 0
time step continuity errors : sum local = 5.39136e-08, global = -6.9873e-14, cumulative = 2.20352e-12
DICPCG:  Solving for p_rgh, Initial residual = 0.000315024, Final residual = 9.23252e-08, No Iterations 287
diagonal:  Solving for rho, Initial residual = 0, Final residual = 0, No Iterations 0
time step continuity errors : sum local = 5.86773e-08, global = -1.0142e-13, cumulative = 2.1021e-12
ExecutionTime = 628.54 s  ClockTime = 656 s

Courant Number mean: 0.00490802 max: 0.0721683
deltaT = 0.5
Time = 99

diagonal:  Solving for rho, Initial residual = 0, Final residual = 0, No Iterations 0
PIMPLE: iteration 1
DICPCG:  Solving for p_rgh, Initial residual = 0.000371871, Final residual = 3.6483e-06, No Iterations 194
diagonal:  Solving for rho, Initial residual = 0, Final residual = 0, No Iterations 0
time step continuity errors : sum local = 5.32657e-08, global = 9.00277e-14, cumulative = 2.19213e-12
DICPCG:  Solving for p_rgh, Initial residual = 0.00031134, Final residual = 9.89648e-08, No Iterations 287
diagonal:  Solving for rho, Initial residual = 0, Final residual = 0, No Iterations 0
time step continuity errors : sum local = 5.95872e-08, global = 4.3377e-14, cumulative = 2.2355e-12
ExecutionTime = 632.44 s  ClockTime = 660 s

Courant Number mean: 0.00489305 max: 0.0714837
deltaT = 0.5
Time = 99.5

diagonal:  Solving for rho, Initial residual = 0, Final residual = 0, No Iterations 0
PIMPLE: iteration 1
DICPCG:  Solving for p_rgh, Initial residual = 0.000372868, Final residual = 3.66983e-06, No Iterations 184
diagonal:  Solving for rho, Initial residual = 0, Final residual = 0, No Iterations 0
time step continuity errors : sum local = 5.26446e-08, global = 1.09238e-14, cumulative = 2.24643e-12
DICPCG:  Solving for p_rgh, Initial residual = 0.000308858, Final residual = 9.40476e-08, No Iterations 270
diagonal:  Solving for rho, Initial residual = 0, Final residual = 0, No Iterations 0
time step continuity errors : sum local = 5.82427e-08, global = 2.29422e-14, cumulative = 2.26937e-12
ExecutionTime = 634.99 s  ClockTime = 663 s

Courant Number mean: 0.0048782 max: 0.0708048
deltaT = 0.5
Time = 100

diagonal:  Solving for rho, Initial residual = 0, Final residual = 0, No Iterations 0
PIMPLE: iteration 1
DICPCG:  Solving for p_rgh, Initial residual = 0.000367744, Final residual = 3.46415e-06, No Iterations 92
diagonal:  Solving for rho, Initial residual = 0, Final residual = 0, No Iterations 0
time step continuity errors : sum local = 3.57024e-08, global = -2.4887e-14, cumulative = 2.24448e-12
DICPCG:  Solving for p_rgh, Initial residual = 0.000254859, Final residual = 9.30277e-08, No Iterations 270
diagonal:  Solving for rho, Initial residual = 0, Final residual = 0, No Iterations 0
time step continuity errors : sum local = 5.77201e-08, global = 9.96296e-15, cumulative = 2.25444e-12
ExecutionTime = 638.04 s  ClockTime = 666 s

End

