/*---------------------------------------------------------------------------*\
| =========                 |                                                 |
| \\      /  F ield         | OpenFOAM: The Open Source CFD Toolbox           |
|  \\    /   O peration     | Version:  v1906                                 |
|   \\  /    A nd           | Web:      www.OpenFOAM.com                      |
|    \\/     M anipulation  |                                                 |
\*---------------------------------------------------------------------------*/
Build  : v1906 OPENFOAM=1906
Arch   : "LSB;label=32;scalar=64"
Exec   : buoyantPimpleFoam
Date   : Oct 11 2019
Time   : 13:14:12
Host   : LAPTOP-FK3MEHTI
PID    : 2869
I/O    : uncollated
Case   : /home/theodore_ong/OpenFoam/tutorials/heatTransfer/buoyantPimpleFoam/hotRoom
nProcs : 1
trapFpe: Floating point exception trapping enabled (FOAM_SIGFPE).
fileModificationChecking : Monitoring run-time modified files using timeStampMaster (fileModificationSkew 10)
allowSystemOperations : Allowing user-supplied system call operations

// * * * * * * * * * * * * * * * * * * * * * * * * * * * * * * * * * * * * * //
Create time

Create mesh for time = 0


PIMPLE: Operating solver in PISO mode

Reading thermophysical properties

Selecting thermodynamics package 
{
    type            heRhoThermo;
    mixture         pureMixture;
    transport       const;
    thermo          hConst;
    equationOfState perfectGas;
    specie          specie;
    energy          sensibleEnthalpy;
}

Reading field U

Reading/calculating face flux field phi

Creating turbulence model

Selecting turbulence model type RAS
Selecting RAS turbulence model kEpsilon
RAS
{
    RASModel        kEpsilon;
    turbulence      on;
    printCoeffs     on;
    Cmu             0.09;
    C1              1.44;
    C2              1.92;
    C3              0;
    sigmak          1;
    sigmaEps        1.3;
}


Reading g

Reading hRef
Calculating field g.h

Reading field p_rgh

Creating field dpdt

Creating field kinetic energy K

No MRF models present

Radiation model not active: radiationProperties not found
Selecting radiationModel none
No finite volume options present
Courant Number mean: 0 max: 0

Starting time loop

Courant Number mean: 0 max: 0
Time = 2

diagonal:  Solving for rho, Initial residual = 0, Final residual = 0, No Iterations 0
PIMPLE: iteration 1
DILUPBiCGStab:  Solving for Ux, Initial residual = 0, Final residual = 0, No Iterations 0
DILUPBiCGStab:  Solving for Uy, Initial residual = 1, Final residual = 6.37852e-07, No Iterations 4
DILUPBiCGStab:  Solving for Uz, Initial residual = 0, Final residual = 0, No Iterations 0
DILUPBiCGStab:  Solving for h, Initial residual = 1, Final residual = 3.0649e-07, No Iterations 4
DICPCG:  Solving for p_rgh, Initial residual = 0.962645, Final residual = 0.0091504, No Iterations 27
diagonal:  Solving for rho, Initial residual = 0, Final residual = 0, No Iterations 0
time step continuity errors : sum local = 0.149735, global = -1.93419e-14, cumulative = -1.93419e-14
DICPCG:  Solving for p_rgh, Initial residual = 0.783119, Final residual = 6.53607e-09, No Iterations 47
diagonal:  Solving for rho, Initial residual = 0, Final residual = 0, No Iterations 0
time step continuity errors : sum local = 0.00161142, global = -1.50996e-14, cumulative = -3.44415e-14
DILUPBiCGStab:  Solving for epsilon, Initial residual = 0.143779, Final residual = 5.37471e-07, No Iterations 4
DILUPBiCGStab:  Solving for k, Initial residual = 1, Final residual = 3.03897e-07, No Iterations 5
ExecutionTime = 0.08 s  ClockTime = 0 s

Courant Number mean: 2.67399 max: 11.4356
Time = 4

diagonal:  Solving for rho, Initial residual = 0, Final residual = 0, No Iterations 0
PIMPLE: iteration 1
DILUPBiCGStab:  Solving for Ux, Initial residual = 0.562144, Final residual = 2.3441e-07, No Iterations 6
DILUPBiCGStab:  Solving for Uy, Initial residual = 0.6671, Final residual = 5.71628e-07, No Iterations 5
DILUPBiCGStab:  Solving for Uz, Initial residual = 0.562144, Final residual = 2.3441e-07, No Iterations 6
DILUPBiCGStab:  Solving for h, Initial residual = 0.507956, Final residual = 4.85432e-07, No Iterations 5
DICPCG:  Solving for p_rgh, Initial residual = 0.952685, Final residual = 0.00516941, No Iterations 9
diagonal:  Solving for rho, Initial residual = 0, Final residual = 0, No Iterations 0
time step continuity errors : sum local = 0.0479179, global = -1.7973e-15, cumulative = -3.62388e-14
DICPCG:  Solving for p_rgh, Initial residual = 0.677064, Final residual = 9.09281e-09, No Iterations 45
diagonal:  Solving for rho, Initial residual = 0, Final residual = 0, No Iterations 0
time step continuity errors : sum local = 0.000181657, global = -9.00589e-16, cumulative = -3.71394e-14
DILUPBiCGStab:  Solving for epsilon, Initial residual = 0.0725501, Final residual = 1.74209e-07, No Iterations 3
DILUPBiCGStab:  Solving for k, Initial residual = 0.287275, Final residual = 6.77524e-07, No Iterations 4
ExecutionTime = 0.09 s  ClockTime = 0 s

Courant Number mean: 2.45562 max: 25.719
Time = 6

diagonal:  Solving for rho, Initial residual = 0, Final residual = 0, No Iterations 0
PIMPLE: iteration 1
DILUPBiCGStab:  Solving for Ux, Initial residual = 0.459884, Final residual = 7.33189e-07, No Iterations 5
DILUPBiCGStab:  Solving for Uy, Initial residual = 0.614483, Final residual = 8.53038e-07, No Iterations 5
DILUPBiCGStab:  Solving for Uz, Initial residual = 0.459884, Final residual = 7.33189e-07, No Iterations 5
DILUPBiCGStab:  Solving for h, Initial residual = 0.356472, Final residual = 4.18776e-07, No Iterations 5
DICPCG:  Solving for p_rgh, Initial residual = 0.937822, Final residual = 0.00745504, No Iterations 31
diagonal:  Solving for rho, Initial residual = 0, Final residual = 0, No Iterations 0
time step continuity errors : sum local = 0.018892, global = -2.82969e-15, cumulative = -3.99691e-14
DICPCG:  Solving for p_rgh, Initial residual = 0.639362, Final residual = 7.8504e-09, No Iterations 50
diagonal:  Solving for rho, Initial residual = 0, Final residual = 0, No Iterations 0
time step continuity errors : sum local = 0.000822258, global = -2.52962e-15, cumulative = -4.24987e-14
DILUPBiCGStab:  Solving for epsilon, Initial residual = 0.176436, Final residual = 2.5494e-07, No Iterations 3
DILUPBiCGStab:  Solving for k, Initial residual = 0.341405, Final residual = 4.52308e-07, No Iterations 4
ExecutionTime = 0.13 s  ClockTime = 0 s

Courant Number mean: 1.85419 max: 5.12912
Time = 8

diagonal:  Solving for rho, Initial residual = 0, Final residual = 0, No Iterations 0
PIMPLE: iteration 1
DILUPBiCGStab:  Solving for Ux, Initial residual = 0.364754, Final residual = 2.61246e-07, No Iterations 5
DILUPBiCGStab:  Solving for Uy, Initial residual = 0.441274, Final residual = 9.11762e-07, No Iterations 5
DILUPBiCGStab:  Solving for Uz, Initial residual = 0.364754, Final residual = 2.61246e-07, No Iterations 5
DILUPBiCGStab:  Solving for h, Initial residual = 0.178781, Final residual = 2.70151e-07, No Iterations 5
DICPCG:  Solving for p_rgh, Initial residual = 0.886331, Final residual = 0.0065391, No Iterations 29
diagonal:  Solving for rho, Initial residual = 0, Final residual = 0, No Iterations 0
time step continuity errors : sum local = 0.00724821, global = -1.16425e-17, cumulative = -4.25104e-14
DICPCG:  Solving for p_rgh, Initial residual = 0.618444, Final residual = 4.8065e-09, No Iterations 51
diagonal:  Solving for rho, Initial residual = 0, Final residual = 0, No Iterations 0
time step continuity errors : sum local = 0.000172092, global = -3.9637e-16, cumulative = -4.29068e-14
DILUPBiCGStab:  Solving for epsilon, Initial residual = 0.201743, Final residual = 1.6142e-07, No Iterations 3
DILUPBiCGStab:  Solving for k, Initial residual = 0.339526, Final residual = 9.38463e-07, No Iterations 4
ExecutionTime = 0.15 s  ClockTime = 0 s

Courant Number mean: 1.61191 max: 3.87874
Time = 10

diagonal:  Solving for rho, Initial residual = 0, Final residual = 0, No Iterations 0
PIMPLE: iteration 1
DILUPBiCGStab:  Solving for Ux, Initial residual = 0.1714, Final residual = 5.42402e-07, No Iterations 4
DILUPBiCGStab:  Solving for Uy, Initial residual = 0.194787, Final residual = 6.83903e-07, No Iterations 4
DILUPBiCGStab:  Solving for Uz, Initial residual = 0.1714, Final residual = 5.42402e-07, No Iterations 4
DILUPBiCGStab:  Solving for h, Initial residual = 0.103638, Final residual = 2.52249e-07, No Iterations 4
DICPCG:  Solving for p_rgh, Initial residual = 0.649961, Final residual = 0.0056006, No Iterations 29
diagonal:  Solving for rho, Initial residual = 0, Final residual = 0, No Iterations 0
time step continuity errors : sum local = 0.00175222, global = 1.48947e-15, cumulative = -4.14173e-14
DICPCG:  Solving for p_rgh, Initial residual = 0.42451, Final residual = 7.75179e-09, No Iterations 50
diagonal:  Solving for rho, Initial residual = 0, Final residual = 0, No Iterations 0
time step continuity errors : sum local = 4.90881e-05, global = 9.66946e-16, cumulative = -4.04503e-14
DILUPBiCGStab:  Solving for epsilon, Initial residual = 0.215946, Final residual = 1.55524e-07, No Iterations 3
DILUPBiCGStab:  Solving for k, Initial residual = 0.308091, Final residual = 3.85953e-07, No Iterations 4
ExecutionTime = 0.16 s  ClockTime = 0 s

Courant Number mean: 1.42554 max: 3.38377
Time = 12

diagonal:  Solving for rho, Initial residual = 0, Final residual = 0, No Iterations 0
PIMPLE: iteration 1
DILUPBiCGStab:  Solving for Ux, Initial residual = 0.0817993, Final residual = 2.37416e-08, No Iterations 5
DILUPBiCGStab:  Solving for Uy, Initial residual = 0.0923326, Final residual = 2.99608e-07, No Iterations 4
DILUPBiCGStab:  Solving for Uz, Initial residual = 0.0817993, Final residual = 2.37416e-08, No Iterations 5
DILUPBiCGStab:  Solving for h, Initial residual = 0.0643695, Final residual = 4.85263e-07, No Iterations 4
DICPCG:  Solving for p_rgh, Initial residual = 0.417289, Final residual = 0.00246413, No Iterations 28
diagonal:  Solving for rho, Initial residual = 0, Final residual = 0, No Iterations 0
time step continuity errors : sum local = 0.00037638, global = 6.71717e-16, cumulative = -3.97786e-14
DICPCG:  Solving for p_rgh, Initial residual = 0.227975, Final residual = 5.47579e-09, No Iterations 47
diagonal:  Solving for rho, Initial residual = 0, Final residual = 0, No Iterations 0
time step continuity errors : sum local = 5.17015e-06, global = -4.24973e-17, cumulative = -3.98211e-14
DILUPBiCGStab:  Solving for epsilon, Initial residual = 0.214676, Final residual = 1.26824e-07, No Iterations 3
DILUPBiCGStab:  Solving for k, Initial residual = 0.262028, Final residual = 2.57417e-07, No Iterations 4
ExecutionTime = 0.18 s  ClockTime = 0 s

Courant Number mean: 1.29912 max: 3.01846
Time = 14

diagonal:  Solving for rho, Initial residual = 0, Final residual = 0, No Iterations 0
PIMPLE: iteration 1
DILUPBiCGStab:  Solving for Ux, Initial residual = 0.0579139, Final residual = 4.43655e-07, No Iterations 4
DILUPBiCGStab:  Solving for Uy, Initial residual = 0.0658249, Final residual = 4.73741e-07, No Iterations 4
DILUPBiCGStab:  Solving for Uz, Initial residual = 0.0579139, Final residual = 4.43655e-07, No Iterations 4
DILUPBiCGStab:  Solving for h, Initial residual = 0.0491938, Final residual = 5.4196e-07, No Iterations 4
DICPCG:  Solving for p_rgh, Initial residual = 0.256423, Final residual = 0.00239592, No Iterations 9
diagonal:  Solving for rho, Initial residual = 0, Final residual = 0, No Iterations 0
time step continuity errors : sum local = 0.000282999, global = 3.69669e-15, cumulative = -3.61244e-14
DICPCG:  Solving for p_rgh, Initial residual = 0.14593, Final residual = 8.63453e-09, No Iterations 47
diagonal:  Solving for rho, Initial residual = 0, Final residual = 0, No Iterations 0
time step continuity errors : sum local = 1.29459e-07, global = 1.65126e-15, cumulative = -3.44732e-14
DILUPBiCGStab:  Solving for epsilon, Initial residual = 0.203518, Final residual = 9.10734e-08, No Iterations 3
DILUPBiCGStab:  Solving for k, Initial residual = 0.22872, Final residual = 9.68215e-07, No Iterations 3
ExecutionTime = 0.19 s  ClockTime = 0 s

Courant Number mean: 1.19651 max: 2.72565
Time = 16

diagonal:  Solving for rho, Initial residual = 0, Final residual = 0, No Iterations 0
PIMPLE: iteration 1
DILUPBiCGStab:  Solving for Ux, Initial residual = 0.0487054, Final residual = 9.04589e-07, No Iterations 3
DILUPBiCGStab:  Solving for Uy, Initial residual = 0.0549387, Final residual = 2.51818e-07, No Iterations 4
DILUPBiCGStab:  Solving for Uz, Initial residual = 0.0487054, Final residual = 9.04589e-07, No Iterations 3
DILUPBiCGStab:  Solving for h, Initial residual = 0.0396598, Final residual = 4.02921e-07, No Iterations 4
DICPCG:  Solving for p_rgh, Initial residual = 0.207609, Final residual = 0.00203801, No Iterations 9
diagonal:  Solving for rho, Initial residual = 0, Final residual = 0, No Iterations 0
time step continuity errors : sum local = 0.000233016, global = 2.34861e-16, cumulative = -3.42383e-14
DICPCG:  Solving for p_rgh, Initial residual = 0.11878, Final residual = 4.75846e-09, No Iterations 48
diagonal:  Solving for rho, Initial residual = 0, Final residual = 0, No Iterations 0
time step continuity errors : sum local = 1.45533e-07, global = -2.68524e-15, cumulative = -3.69235e-14
DILUPBiCGStab:  Solving for epsilon, Initial residual = 0.186471, Final residual = 7.7214e-07, No Iterations 3
DILUPBiCGStab:  Solving for k, Initial residual = 0.205491, Final residual = 5.35967e-07, No Iterations 3
ExecutionTime = 0.22 s  ClockTime = 0 s

Courant Number mean: 1.10989 max: 2.45899
Time = 18

diagonal:  Solving for rho, Initial residual = 0, Final residual = 0, No Iterations 0
PIMPLE: iteration 1
DILUPBiCGStab:  Solving for Ux, Initial residual = 0.0433969, Final residual = 4.62038e-07, No Iterations 3
DILUPBiCGStab:  Solving for Uy, Initial residual = 0.047351, Final residual = 7.69054e-07, No Iterations 3
DILUPBiCGStab:  Solving for Uz, Initial residual = 0.0433969, Final residual = 4.62038e-07, No Iterations 3
DILUPBiCGStab:  Solving for h, Initial residual = 0.0354138, Final residual = 3.45575e-07, No Iterations 4
DICPCG:  Solving for p_rgh, Initial residual = 0.177966, Final residual = 0.00174727, No Iterations 9
diagonal:  Solving for rho, Initial residual = 0, Final residual = 0, No Iterations 0
time step continuity errors : sum local = 0.000155859, global = 3.66522e-15, cumulative = -3.32583e-14
DICPCG:  Solving for p_rgh, Initial residual = 0.100543, Final residual = 6.75386e-09, No Iterations 47
diagonal:  Solving for rho, Initial residual = 0, Final residual = 0, No Iterations 0
time step continuity errors : sum local = 1.54189e-08, global = 5.60898e-16, cumulative = -3.26974e-14
DILUPBiCGStab:  Solving for epsilon, Initial residual = 0.168495, Final residual = 5.44383e-07, No Iterations 3
DILUPBiCGStab:  Solving for k, Initial residual = 0.188078, Final residual = 2.73514e-07, No Iterations 3
ExecutionTime = 0.24 s  ClockTime = 0 s

Courant Number mean: 1.03493 max: 2.2225
Time = 20

diagonal:  Solving for rho, Initial residual = 0, Final residual = 0, No Iterations 0
PIMPLE: iteration 1
DILUPBiCGStab:  Solving for Ux, Initial residual = 0.0395024, Final residual = 2.56838e-07, No Iterations 3
DILUPBiCGStab:  Solving for Uy, Initial residual = 0.0420395, Final residual = 5.98233e-07, No Iterations 3
DILUPBiCGStab:  Solving for Uz, Initial residual = 0.0395024, Final residual = 2.56838e-07, No Iterations 3
DILUPBiCGStab:  Solving for h, Initial residual = 0.031883, Final residual = 4.71175e-07, No Iterations 3
DICPCG:  Solving for p_rgh, Initial residual = 0.155539, Final residual = 0.00141485, No Iterations 10
diagonal:  Solving for rho, Initial residual = 0, Final residual = 0, No Iterations 0
time step continuity errors : sum local = 0.000129275, global = 2.34468e-15, cumulative = -3.03527e-14
DICPCG:  Solving for p_rgh, Initial residual = 0.0872956, Final residual = 8.65487e-09, No Iterations 46
diagonal:  Solving for rho, Initial residual = 0, Final residual = 0, No Iterations 0
time step continuity errors : sum local = 8.46358e-08, global = 7.63323e-16, cumulative = -2.95894e-14
DILUPBiCGStab:  Solving for epsilon, Initial residual = 0.152229, Final residual = 3.70428e-07, No Iterations 3
DILUPBiCGStab:  Solving for k, Initial residual = 0.174418, Final residual = 1.5816e-07, No Iterations 3
ExecutionTime = 0.26 s  ClockTime = 0 s

Courant Number mean: 0.968818 max: 2.01842
Time = 22

diagonal:  Solving for rho, Initial residual = 0, Final residual = 0, No Iterations 0
PIMPLE: iteration 1
DILUPBiCGStab:  Solving for Ux, Initial residual = 0.0363603, Final residual = 1.44911e-07, No Iterations 3
DILUPBiCGStab:  Solving for Uy, Initial residual = 0.0381662, Final residual = 2.26796e-07, No Iterations 3
DILUPBiCGStab:  Solving for Uz, Initial residual = 0.0363603, Final residual = 1.44911e-07, No Iterations 3
DILUPBiCGStab:  Solving for h, Initial residual = 0.0293728, Final residual = 2.22479e-07, No Iterations 3
DICPCG:  Solving for p_rgh, Initial residual = 0.137859, Final residual = 0.00116134, No Iterations 10
diagonal:  Solving for rho, Initial residual = 0, Final residual = 0, No Iterations 0
time step continuity errors : sum local = 8.72206e-05, global = -2.36275e-15, cumulative = -3.19522e-14
DICPCG:  Solving for p_rgh, Initial residual = 0.0760262, Final residual = 7.3425e-09, No Iterations 46
diagonal:  Solving for rho, Initial residual = 0, Final residual = 0, No Iterations 0
time step continuity errors : sum local = 7.138e-09, global = 1.96595e-15, cumulative = -2.99862e-14
DILUPBiCGStab:  Solving for epsilon, Initial residual = 0.138996, Final residual = 2.52917e-07, No Iterations 3
DILUPBiCGStab:  Solving for k, Initial residual = 0.163296, Final residual = 1.02881e-07, No Iterations 3
ExecutionTime = 0.27 s  ClockTime = 0 s

Courant Number mean: 0.909976 max: 1.84368
Time = 24

diagonal:  Solving for rho, Initial residual = 0, Final residual = 0, No Iterations 0
PIMPLE: iteration 1
DILUPBiCGStab:  Solving for Ux, Initial residual = 0.033855, Final residual = 9.6922e-07, No Iterations 3
DILUPBiCGStab:  Solving for Uy, Initial residual = 0.0351345, Final residual = 1.29831e-07, No Iterations 3
DILUPBiCGStab:  Solving for Uz, Initial residual = 0.0338551, Final residual = 9.69221e-07, No Iterations 3
DILUPBiCGStab:  Solving for h, Initial residual = 0.0271583, Final residual = 9.10396e-07, No Iterations 3
DICPCG:  Solving for p_rgh, Initial residual = 0.124358, Final residual = 0.00108643, No Iterations 13
diagonal:  Solving for rho, Initial residual = 0, Final residual = 0, No Iterations 0
time step continuity errors : sum local = 8.6759e-05, global = -2.34085e-15, cumulative = -3.23271e-14
DICPCG:  Solving for p_rgh, Initial residual = 0.0672363, Final residual = 8.05782e-09, No Iterations 46
diagonal:  Solving for rho, Initial residual = 0, Final residual = 0, No Iterations 0
time step continuity errors : sum local = 4.41098e-08, global = -2.5622e-15, cumulative = -3.48893e-14
DILUPBiCGStab:  Solving for epsilon, Initial residual = 0.128362, Final residual = 1.76331e-07, No Iterations 3
DILUPBiCGStab:  Solving for k, Initial residual = 0.153975, Final residual = 6.95479e-07, No Iterations 3
ExecutionTime = 0.29 s  ClockTime = 0 s

Courant Number mean: 0.857322 max: 1.69682
Time = 26

diagonal:  Solving for rho, Initial residual = 0, Final residual = 0, No Iterations 0
PIMPLE: iteration 1
DILUPBiCGStab:  Solving for Ux, Initial residual = 0.0317026, Final residual = 6.6062e-07, No Iterations 3
DILUPBiCGStab:  Solving for Uy, Initial residual = 0.0327163, Final residual = 9.78594e-07, No Iterations 3
DILUPBiCGStab:  Solving for Uz, Initial residual = 0.0317026, Final residual = 6.60621e-07, No Iterations 3
DILUPBiCGStab:  Solving for h, Initial residual = 0.0259442, Final residual = 4.74604e-07, No Iterations 3
DICPCG:  Solving for p_rgh, Initial residual = 0.112116, Final residual = 0.000854541, No Iterations 9
diagonal:  Solving for rho, Initial residual = 0, Final residual = 0, No Iterations 0
time step continuity errors : sum local = 5.79916e-05, global = 2.80171e-15, cumulative = -3.20876e-14
DICPCG:  Solving for p_rgh, Initial residual = 0.0593497, Final residual = 5.46361e-09, No Iterations 46
diagonal:  Solving for rho, Initial residual = 0, Final residual = 0, No Iterations 0
time step continuity errors : sum local = 1.28287e-08, global = 2.45019e-16, cumulative = -3.18425e-14
DILUPBiCGStab:  Solving for epsilon, Initial residual = 0.119677, Final residual = 1.25713e-07, No Iterations 3
DILUPBiCGStab:  Solving for k, Initial residual = 0.145919, Final residual = 4.9191e-07, No Iterations 3
ExecutionTime = 0.31 s  ClockTime = 0 s

Courant Number mean: 0.810055 max: 1.5711
Time = 28

diagonal:  Solving for rho, Initial residual = 0, Final residual = 0, No Iterations 0
PIMPLE: iteration 1
DILUPBiCGStab:  Solving for Ux, Initial residual = 0.0300055, Final residual = 4.75483e-07, No Iterations 3
DILUPBiCGStab:  Solving for Uy, Initial residual = 0.030645, Final residual = 6.70818e-07, No Iterations 3
DILUPBiCGStab:  Solving for Uz, Initial residual = 0.0300055, Final residual = 4.75483e-07, No Iterations 3
DILUPBiCGStab:  Solving for h, Initial residual = 0.0249458, Final residual = 3.5742e-07, No Iterations 3
DICPCG:  Solving for p_rgh, Initial residual = 0.102918, Final residual = 0.000804176, No Iterations 9
diagonal:  Solving for rho, Initial residual = 0, Final residual = 0, No Iterations 0
time step continuity errors : sum local = 5.32415e-05, global = -7.76259e-16, cumulative = -3.26188e-14
DICPCG:  Solving for p_rgh, Initial residual = 0.0532581, Final residual = 8.64888e-09, No Iterations 44
diagonal:  Solving for rho, Initial residual = 0, Final residual = 0, No Iterations 0
time step continuity errors : sum local = 2.2793e-08, global = 1.03929e-15, cumulative = -3.15795e-14
DILUPBiCGStab:  Solving for epsilon, Initial residual = 0.112439, Final residual = 9.1323e-08, No Iterations 3
DILUPBiCGStab:  Solving for k, Initial residual = 0.138843, Final residual = 3.5833e-07, No Iterations 3
ExecutionTime = 0.32 s  ClockTime = 0 s

Courant Number mean: 0.767397 max: 1.46213
Time = 30

diagonal:  Solving for rho, Initial residual = 0, Final residual = 0, No Iterations 0
PIMPLE: iteration 1
DILUPBiCGStab:  Solving for Ux, Initial residual = 0.0285405, Final residual = 3.46474e-07, No Iterations 3
DILUPBiCGStab:  Solving for Uy, Initial residual = 0.0289429, Final residual = 4.80411e-07, No Iterations 3
DILUPBiCGStab:  Solving for Uz, Initial residual = 0.0285405, Final residual = 3.46474e-07, No Iterations 3
DILUPBiCGStab:  Solving for h, Initial residual = 0.0258375, Final residual = 3.36294e-07, No Iterations 3
DICPCG:  Solving for p_rgh, Initial residual = 0.0964832, Final residual = 0.00067154, No Iterations 9
diagonal:  Solving for rho, Initial residual = 0, Final residual = 0, No Iterations 0
time step continuity errors : sum local = 4.11434e-05, global = -1.42522e-15, cumulative = -3.30047e-14
DICPCG:  Solving for p_rgh, Initial residual = 0.0480556, Final residual = 9.39554e-09, No Iterations 45
diagonal:  Solving for rho, Initial residual = 0, Final residual = 0, No Iterations 0
time step continuity errors : sum local = 1.16166e-08, global = -3.01314e-15, cumulative = -3.60179e-14
DILUPBiCGStab:  Solving for epsilon, Initial residual = 0.106377, Final residual = 9.87317e-07, No Iterations 2
DILUPBiCGStab:  Solving for k, Initial residual = 0.132519, Final residual = 2.69423e-07, No Iterations 3
ExecutionTime = 0.34 s  ClockTime = 0 s

Courant Number mean: 0.728684 max: 1.36734
Time = 32

diagonal:  Solving for rho, Initial residual = 0, Final residual = 0, No Iterations 0
PIMPLE: iteration 1
DILUPBiCGStab:  Solving for Ux, Initial residual = 0.0272887, Final residual = 2.57861e-07, No Iterations 3
DILUPBiCGStab:  Solving for Uy, Initial residual = 0.0274987, Final residual = 3.61791e-07, No Iterations 3
DILUPBiCGStab:  Solving for Uz, Initial residual = 0.0272887, Final residual = 2.57861e-07, No Iterations 3
DILUPBiCGStab:  Solving for h, Initial residual = 0.0265592, Final residual = 4.81321e-07, No Iterations 3
DICPCG:  Solving for p_rgh, Initial residual = 0.0905983, Final residual = 0.000714503, No Iterations 9
diagonal:  Solving for rho, Initial residual = 0, Final residual = 0, No Iterations 0
time step continuity errors : sum local = 4.13359e-05, global = -8.60679e-16, cumulative = -3.68785e-14
DICPCG:  Solving for p_rgh, Initial residual = 0.043509, Final residual = 8.22451e-09, No Iterations 45
diagonal:  Solving for rho, Initial residual = 0, Final residual = 0, No Iterations 0
time step continuity errors : sum local = 1.66187e-08, global = 7.30504e-16, cumulative = -3.6148e-14
DILUPBiCGStab:  Solving for epsilon, Initial residual = 0.101213, Final residual = 7.65584e-07, No Iterations 2
DILUPBiCGStab:  Solving for k, Initial residual = 0.126816, Final residual = 2.07406e-07, No Iterations 3
ExecutionTime = 0.35 s  ClockTime = 0 s

Courant Number mean: 0.693377 max: 1.28434
Time = 34

diagonal:  Solving for rho, Initial residual = 0, Final residual = 0, No Iterations 0
PIMPLE: iteration 1
DILUPBiCGStab:  Solving for Ux, Initial residual = 0.0261607, Final residual = 1.92563e-07, No Iterations 3
DILUPBiCGStab:  Solving for Uy, Initial residual = 0.0262305, Final residual = 2.82269e-07, No Iterations 3
DILUPBiCGStab:  Solving for Uz, Initial residual = 0.0261607, Final residual = 1.92563e-07, No Iterations 3
DILUPBiCGStab:  Solving for h, Initial residual = 0.026983, Final residual = 2.06138e-07, No Iterations 3
DICPCG:  Solving for p_rgh, Initial residual = 0.0850068, Final residual = 0.000598288, No Iterations 9
diagonal:  Solving for rho, Initial residual = 0, Final residual = 0, No Iterations 0
time step continuity errors : sum local = 3.26075e-05, global = 3.68074e-15, cumulative = -3.24673e-14
DICPCG:  Solving for p_rgh, Initial residual = 0.0396202, Final residual = 6.20739e-09, No Iterations 45
diagonal:  Solving for rho, Initial residual = 0, Final residual = 0, No Iterations 0
time step continuity errors : sum local = 9.82618e-09, global = 2.45546e-16, cumulative = -3.22218e-14
DILUPBiCGStab:  Solving for epsilon, Initial residual = 0.0967549, Final residual = 5.99891e-07, No Iterations 2
DILUPBiCGStab:  Solving for k, Initial residual = 0.121629, Final residual = 1.61914e-07, No Iterations 3
ExecutionTime = 0.37 s  ClockTime = 0 s

Courant Number mean: 0.661116 max: 1.21534
Time = 36

diagonal:  Solving for rho, Initial residual = 0, Final residual = 0, No Iterations 0
PIMPLE: iteration 1
DILUPBiCGStab:  Solving for Ux, Initial residual = 0.0251307, Final residual = 1.45674e-07, No Iterations 3
DILUPBiCGStab:  Solving for Uy, Initial residual = 0.0250579, Final residual = 2.26631e-07, No Iterations 3
DILUPBiCGStab:  Solving for Uz, Initial residual = 0.0251307, Final residual = 1.45673e-07, No Iterations 3
DILUPBiCGStab:  Solving for h, Initial residual = 0.0270569, Final residual = 1.84451e-07, No Iterations 3
DICPCG:  Solving for p_rgh, Initial residual = 0.0796797, Final residual = 0.000638141, No Iterations 9
diagonal:  Solving for rho, Initial residual = 0, Final residual = 0, No Iterations 0
time step continuity errors : sum local = 3.31898e-05, global = 2.4246e-15, cumulative = -2.97972e-14
DICPCG:  Solving for p_rgh, Initial residual = 0.0361792, Final residual = 4.89953e-09, No Iterations 45
diagonal:  Solving for rho, Initial residual = 0, Final residual = 0, No Iterations 0
time step continuity errors : sum local = 1.29533e-08, global = -1.71997e-15, cumulative = -3.15171e-14
DILUPBiCGStab:  Solving for epsilon, Initial residual = 0.0928538, Final residual = 4.74797e-07, No Iterations 2
DILUPBiCGStab:  Solving for k, Initial residual = 0.116863, Final residual = 1.28358e-07, No Iterations 3
ExecutionTime = 0.38 s  ClockTime = 0 s

Courant Number mean: 0.631604 max: 1.16169
Time = 38

diagonal:  Solving for rho, Initial residual = 0, Final residual = 0, No Iterations 0
PIMPLE: iteration 1
DILUPBiCGStab:  Solving for Ux, Initial residual = 0.0241915, Final residual = 8.2348e-07, No Iterations 2
DILUPBiCGStab:  Solving for Uy, Initial residual = 0.0239976, Final residual = 8.99943e-07, No Iterations 2
DILUPBiCGStab:  Solving for Uz, Initial residual = 0.0241915, Final residual = 8.23481e-07, No Iterations 2
DILUPBiCGStab:  Solving for h, Initial residual = 0.0268922, Final residual = 1.56264e-07, No Iterations 3
DICPCG:  Solving for p_rgh, Initial residual = 0.0749306, Final residual = 0.000553479, No Iterations 9
diagonal:  Solving for rho, Initial residual = 0, Final residual = 0, No Iterations 0
time step continuity errors : sum local = 2.76458e-05, global = 2.77435e-15, cumulative = -2.87428e-14
DICPCG:  Solving for p_rgh, Initial residual = 0.0330502, Final residual = 5.08113e-09, No Iterations 45
diagonal:  Solving for rho, Initial residual = 0, Final residual = 0, No Iterations 0
time step continuity errors : sum local = 9.30055e-09, global = 2.55305e-15, cumulative = -2.61897e-14
DILUPBiCGStab:  Solving for epsilon, Initial residual = 0.0893383, Final residual = 3.79734e-07, No Iterations 2
DILUPBiCGStab:  Solving for k, Initial residual = 0.112448, Final residual = 1.03615e-07, No Iterations 3
ExecutionTime = 0.4 s  ClockTime = 0 s

Courant Number mean: 0.604535 max: 1.11096
Time = 40

diagonal:  Solving for rho, Initial residual = 0, Final residual = 0, No Iterations 0
PIMPLE: iteration 1
DILUPBiCGStab:  Solving for Ux, Initial residual = 0.0233549, Final residual = 6.46209e-07, No Iterations 2
DILUPBiCGStab:  Solving for Uy, Initial residual = 0.023021, Final residual = 7.09134e-07, No Iterations 2
DILUPBiCGStab:  Solving for Uz, Initial residual = 0.0233549, Final residual = 6.46209e-07, No Iterations 2
DILUPBiCGStab:  Solving for h, Initial residual = 0.0266501, Final residual = 1.2705e-07, No Iterations 3
DICPCG:  Solving for p_rgh, Initial residual = 0.0711271, Final residual = 0.000591919, No Iterations 9
diagonal:  Solving for rho, Initial residual = 0, Final residual = 0, No Iterations 0
time step continuity errors : sum local = 2.83753e-05, global = -1.48008e-15, cumulative = -2.76698e-14
DICPCG:  Solving for p_rgh, Initial residual = 0.0303826, Final residual = 5.5124e-09, No Iterations 45
diagonal:  Solving for rho, Initial residual = 0, Final residual = 0, No Iterations 0
time step continuity errors : sum local = 1.13638e-08, global = 2.02076e-15, cumulative = -2.5649e-14
DILUPBiCGStab:  Solving for epsilon, Initial residual = 0.0861272, Final residual = 3.05084e-07, No Iterations 2
DILUPBiCGStab:  Solving for k, Initial residual = 0.108345, Final residual = 9.61974e-07, No Iterations 2
ExecutionTime = 0.42 s  ClockTime = 0 s

Courant Number mean: 0.579534 max: 1.06312
Time = 42

diagonal:  Solving for rho, Initial residual = 0, Final residual = 0, No Iterations 0
PIMPLE: iteration 1
DILUPBiCGStab:  Solving for Ux, Initial residual = 0.0227249, Final residual = 5.13036e-07, No Iterations 2
DILUPBiCGStab:  Solving for Uy, Initial residual = 0.0221232, Final residual = 5.80508e-07, No Iterations 2
DILUPBiCGStab:  Solving for Uz, Initial residual = 0.0227249, Final residual = 5.13037e-07, No Iterations 2
DILUPBiCGStab:  Solving for h, Initial residual = 0.026206, Final residual = 8.88563e-08, No Iterations 3
DICPCG:  Solving for p_rgh, Initial residual = 0.0671434, Final residual = 0.000537666, No Iterations 9
diagonal:  Solving for rho, Initial residual = 0, Final residual = 0, No Iterations 0
time step continuity errors : sum local = 2.47397e-05, global = 8.0745e-16, cumulative = -2.48416e-14
DICPCG:  Solving for p_rgh, Initial residual = 0.0281988, Final residual = 5.26064e-09, No Iterations 45
diagonal:  Solving for rho, Initial residual = 0, Final residual = 0, No Iterations 0
time step continuity errors : sum local = 8.64924e-09, global = -4.90329e-15, cumulative = -2.97449e-14
DILUPBiCGStab:  Solving for epsilon, Initial residual = 0.0831503, Final residual = 2.45771e-07, No Iterations 2
DILUPBiCGStab:  Solving for k, Initial residual = 0.104543, Final residual = 7.70581e-07, No Iterations 2
ExecutionTime = 0.43 s  ClockTime = 0 s

Courant Number mean: 0.556372 max: 1.02234
Time = 44

diagonal:  Solving for rho, Initial residual = 0, Final residual = 0, No Iterations 0
PIMPLE: iteration 1
DILUPBiCGStab:  Solving for Ux, Initial residual = 0.0221793, Final residual = 4.09504e-07, No Iterations 2
DILUPBiCGStab:  Solving for Uy, Initial residual = 0.0213433, Final residual = 4.81795e-07, No Iterations 2
DILUPBiCGStab:  Solving for Uz, Initial residual = 0.0221793, Final residual = 4.09504e-07, No Iterations 2
DILUPBiCGStab:  Solving for h, Initial residual = 0.0254095, Final residual = 7.16225e-08, No Iterations 3
DICPCG:  Solving for p_rgh, Initial residual = 0.0641002, Final residual = 0.000549943, No Iterations 9
diagonal:  Solving for rho, Initial residual = 0, Final residual = 0, No Iterations 0
time step continuity errors : sum local = 2.45647e-05, global = 3.17499e-15, cumulative = -2.65699e-14
DICPCG:  Solving for p_rgh, Initial residual = 0.0260022, Final residual = 4.40146e-09, No Iterations 45
diagonal:  Solving for rho, Initial residual = 0, Final residual = 0, No Iterations 0
time step continuity errors : sum local = 9.16019e-09, global = 5.11559e-15, cumulative = -2.14543e-14
DILUPBiCGStab:  Solving for epsilon, Initial residual = 0.0804085, Final residual = 1.99549e-07, No Iterations 2
DILUPBiCGStab:  Solving for k, Initial residual = 0.100945, Final residual = 6.20569e-07, No Iterations 2
ExecutionTime = 0.45 s  ClockTime = 0 s

Courant Number mean: 0.534943 max: 0.98519
Time = 46

diagonal:  Solving for rho, Initial residual = 0, Final residual = 0, No Iterations 0
PIMPLE: iteration 1
DILUPBiCGStab:  Solving for Ux, Initial residual = 0.021696, Final residual = 3.31551e-07, No Iterations 2
DILUPBiCGStab:  Solving for Uy, Initial residual = 0.0206572, Final residual = 3.99614e-07, No Iterations 2
DILUPBiCGStab:  Solving for Uz, Initial residual = 0.021696, Final residual = 3.31551e-07, No Iterations 2
DILUPBiCGStab:  Solving for h, Initial residual = 0.0245497, Final residual = 4.46314e-08, No Iterations 3
DICPCG:  Solving for p_rgh, Initial residual = 0.0614005, Final residual = 0.000528727, No Iterations 9
diagonal:  Solving for rho, Initial residual = 0, Final residual = 0, No Iterations 0
time step continuity errors : sum local = 2.3036e-05, global = 9.52908e-16, cumulative = -2.05014e-14
DICPCG:  Solving for p_rgh, Initial residual = 0.023995, Final residual = 9.11194e-09, No Iterations 44
diagonal:  Solving for rho, Initial residual = 0, Final residual = 0, No Iterations 0
time step continuity errors : sum local = 8.45974e-09, global = -4.34743e-15, cumulative = -2.48488e-14
DILUPBiCGStab:  Solving for epsilon, Initial residual = 0.0778076, Final residual = 1.62295e-07, No Iterations 2
DILUPBiCGStab:  Solving for k, Initial residual = 0.0975791, Final residual = 5.05404e-07, No Iterations 2
ExecutionTime = 0.47 s  ClockTime = 0 s

Courant Number mean: 0.515002 max: 0.946869
Time = 48

diagonal:  Solving for rho, Initial residual = 0, Final residual = 0, No Iterations 0
PIMPLE: iteration 1
DILUPBiCGStab:  Solving for Ux, Initial residual = 0.0213556, Final residual = 2.72019e-07, No Iterations 2
DILUPBiCGStab:  Solving for Uy, Initial residual = 0.0200359, Final residual = 3.31533e-07, No Iterations 2
DILUPBiCGStab:  Solving for Uz, Initial residual = 0.0213556, Final residual = 2.7202e-07, No Iterations 2
DILUPBiCGStab:  Solving for h, Initial residual = 0.0242481, Final residual = 5.31786e-08, No Iterations 3
DICPCG:  Solving for p_rgh, Initial residual = 0.058764, Final residual = 0.000533788, No Iterations 9
diagonal:  Solving for rho, Initial residual = 0, Final residual = 0, No Iterations 0
time step continuity errors : sum local = 2.26621e-05, global = 4.06049e-15, cumulative = -2.07883e-14
DICPCG:  Solving for p_rgh, Initial residual = 0.0224305, Final residual = 9.6345e-09, No Iterations 44
diagonal:  Solving for rho, Initial residual = 0, Final residual = 0, No Iterations 0
time step continuity errors : sum local = 8.37744e-09, global = 3.21883e-15, cumulative = -1.75695e-14
DILUPBiCGStab:  Solving for epsilon, Initial residual = 0.0753497, Final residual = 1.32369e-07, No Iterations 2
DILUPBiCGStab:  Solving for k, Initial residual = 0.0943924, Final residual = 4.14996e-07, No Iterations 2
ExecutionTime = 0.49 s  ClockTime = 0 s

Courant Number mean: 0.496411 max: 0.971452
Time = 50

diagonal:  Solving for rho, Initial residual = 0, Final residual = 0, No Iterations 0
PIMPLE: iteration 1
DILUPBiCGStab:  Solving for Ux, Initial residual = 0.0211254, Final residual = 2.25455e-07, No Iterations 2
DILUPBiCGStab:  Solving for Uy, Initial residual = 0.019487, Final residual = 2.75706e-07, No Iterations 2
DILUPBiCGStab:  Solving for Uz, Initial residual = 0.0211254, Final residual = 2.25455e-07, No Iterations 2
DILUPBiCGStab:  Solving for h, Initial residual = 0.0238346, Final residual = 7.98997e-07, No Iterations 2
DICPCG:  Solving for p_rgh, Initial residual = 0.0570432, Final residual = 0.000527427, No Iterations 9
diagonal:  Solving for rho, Initial residual = 0, Final residual = 0, No Iterations 0
time step continuity errors : sum local = 2.19574e-05, global = -1.04337e-15, cumulative = -1.86129e-14
DICPCG:  Solving for p_rgh, Initial residual = 0.0210051, Final residual = 5.11579e-09, No Iterations 45
diagonal:  Solving for rho, Initial residual = 0, Final residual = 0, No Iterations 0
time step continuity errors : sum local = 7.79131e-09, global = -1.67881e-15, cumulative = -2.02917e-14
DILUPBiCGStab:  Solving for epsilon, Initial residual = 0.0730554, Final residual = 1.0786e-07, No Iterations 2
DILUPBiCGStab:  Solving for k, Initial residual = 0.0913382, Final residual = 3.43142e-07, No Iterations 2
ExecutionTime = 0.5 s  ClockTime = 0 s

Courant Number mean: 0.479052 max: 1.00487
Time = 52

diagonal:  Solving for rho, Initial residual = 0, Final residual = 0, No Iterations 0
PIMPLE: iteration 1
DILUPBiCGStab:  Solving for Ux, Initial residual = 0.0209736, Final residual = 1.88904e-07, No Iterations 2
DILUPBiCGStab:  Solving for Uy, Initial residual = 0.019036, Final residual = 2.3106e-07, No Iterations 2
DILUPBiCGStab:  Solving for Uz, Initial residual = 0.0209736, Final residual = 1.88904e-07, No Iterations 2
DILUPBiCGStab:  Solving for h, Initial residual = 0.0233856, Final residual = 6.90021e-07, No Iterations 2
DICPCG:  Solving for p_rgh, Initial residual = 0.0556174, Final residual = 0.000541171, No Iterations 9
diagonal:  Solving for rho, Initial residual = 0, Final residual = 0, No Iterations 0
time step continuity errors : sum local = 2.21615e-05, global = 1.07709e-15, cumulative = -1.92146e-14
DICPCG:  Solving for p_rgh, Initial residual = 0.0198614, Final residual = 5.58093e-09, No Iterations 45
diagonal:  Solving for rho, Initial residual = 0, Final residual = 0, No Iterations 0
time step continuity errors : sum local = 7.76768e-09, global = 2.68792e-15, cumulative = -1.65267e-14
DILUPBiCGStab:  Solving for epsilon, Initial residual = 0.0708853, Final residual = 8.74223e-08, No Iterations 2
DILUPBiCGStab:  Solving for k, Initial residual = 0.088409, Final residual = 2.85438e-07, No Iterations 2
ExecutionTime = 0.5 s  ClockTime = 0 s

Courant Number mean: 0.462786 max: 1.03217
Time = 54

diagonal:  Solving for rho, Initial residual = 0, Final residual = 0, No Iterations 0
PIMPLE: iteration 1
DILUPBiCGStab:  Solving for Ux, Initial residual = 0.0209379, Final residual = 1.60021e-07, No Iterations 2
DILUPBiCGStab:  Solving for Uy, Initial residual = 0.018635, Final residual = 1.96586e-07, No Iterations 2
DILUPBiCGStab:  Solving for Uz, Initial residual = 0.0209379, Final residual = 1.60021e-07, No Iterations 2
DILUPBiCGStab:  Solving for h, Initial residual = 0.0229319, Final residual = 5.96595e-07, No Iterations 2
DICPCG:  Solving for p_rgh, Initial residual = 0.0532172, Final residual = 0.000329856, No Iterations 10
diagonal:  Solving for rho, Initial residual = 0, Final residual = 0, No Iterations 0
time step continuity errors : sum local = 1.3643e-05, global = -3.41186e-15, cumulative = -1.99385e-14
DICPCG:  Solving for p_rgh, Initial residual = 0.0189208, Final residual = 5.81297e-09, No Iterations 45
diagonal:  Solving for rho, Initial residual = 0, Final residual = 0, No Iterations 0
time step continuity errors : sum local = 7.26972e-09, global = -3.45795e-15, cumulative = -2.33965e-14
DILUPBiCGStab:  Solving for epsilon, Initial residual = 0.0688774, Final residual = 7.13847e-08, No Iterations 2
DILUPBiCGStab:  Solving for k, Initial residual = 0.0856326, Final residual = 2.39206e-07, No Iterations 2
ExecutionTime = 0.52 s  ClockTime = 0 s

Courant Number mean: 0.447525 max: 1.05493
Time = 56

diagonal:  Solving for rho, Initial residual = 0, Final residual = 0, No Iterations 0
PIMPLE: iteration 1
DILUPBiCGStab:  Solving for Ux, Initial residual = 0.0209785, Final residual = 1.36657e-07, No Iterations 2
DILUPBiCGStab:  Solving for Uy, Initial residual = 0.0182877, Final residual = 1.68663e-07, No Iterations 2
DILUPBiCGStab:  Solving for Uz, Initial residual = 0.0209785, Final residual = 1.36657e-07, No Iterations 2
DILUPBiCGStab:  Solving for h, Initial residual = 0.0225243, Final residual = 5.04974e-07, No Iterations 2
DICPCG:  Solving for p_rgh, Initial residual = 0.0533826, Final residual = 0.000352539, No Iterations 10
diagonal:  Solving for rho, Initial residual = 0, Final residual = 0, No Iterations 0
time step continuity errors : sum local = 1.43693e-05, global = 3.05837e-15, cumulative = -2.03381e-14
DICPCG:  Solving for p_rgh, Initial residual = 0.0183303, Final residual = 6.27958e-09, No Iterations 45
diagonal:  Solving for rho, Initial residual = 0, Final residual = 0, No Iterations 0
time step continuity errors : sum local = 7.27089e-09, global = 9.89177e-16, cumulative = -1.93489e-14
DILUPBiCGStab:  Solving for epsilon, Initial residual = 0.0668788, Final residual = 5.9253e-08, No Iterations 2
DILUPBiCGStab:  Solving for k, Initial residual = 0.0829547, Final residual = 2.0308e-07, No Iterations 2
ExecutionTime = 0.55 s  ClockTime = 0 s

Courant Number mean: 0.433217 max: 1.07415
Time = 58

diagonal:  Solving for rho, Initial residual = 0, Final residual = 0, No Iterations 0
PIMPLE: iteration 1
DILUPBiCGStab:  Solving for Ux, Initial residual = 0.0211026, Final residual = 1.17502e-07, No Iterations 2
DILUPBiCGStab:  Solving for Uy, Initial residual = 0.0180827, Final residual = 1.44635e-07, No Iterations 2
DILUPBiCGStab:  Solving for Uz, Initial residual = 0.0211026, Final residual = 1.17502e-07, No Iterations 2
DILUPBiCGStab:  Solving for h, Initial residual = 0.0222525, Final residual = 4.00414e-07, No Iterations 2
DICPCG:  Solving for p_rgh, Initial residual = 0.0537888, Final residual = 0.00037374, No Iterations 10
diagonal:  Solving for rho, Initial residual = 0, Final residual = 0, No Iterations 0
time step continuity errors : sum local = 1.49917e-05, global = -5.84949e-16, cumulative = -1.99339e-14
DICPCG:  Solving for p_rgh, Initial residual = 0.0179823, Final residual = 6.69834e-09, No Iterations 45
diagonal:  Solving for rho, Initial residual = 0, Final residual = 0, No Iterations 0
time step continuity errors : sum local = 7.42335e-09, global = 9.58035e-16, cumulative = -1.89759e-14
DILUPBiCGStab:  Solving for epsilon, Initial residual = 0.0648943, Final residual = 4.90053e-08, No Iterations 2
DILUPBiCGStab:  Solving for k, Initial residual = 0.0803132, Final residual = 1.72156e-07, No Iterations 2
ExecutionTime = 0.57 s  ClockTime = 0 s

Courant Number mean: 0.419594 max: 1.0852
Time = 60

diagonal:  Solving for rho, Initial residual = 0, Final residual = 0, No Iterations 0
PIMPLE: iteration 1
DILUPBiCGStab:  Solving for Ux, Initial residual = 0.0212899, Final residual = 1.02151e-07, No Iterations 2
DILUPBiCGStab:  Solving for Uy, Initial residual = 0.0179491, Final residual = 1.23776e-07, No Iterations 2
DILUPBiCGStab:  Solving for Uz, Initial residual = 0.0212899, Final residual = 1.02151e-07, No Iterations 2
DILUPBiCGStab:  Solving for h, Initial residual = 0.0220733, Final residual = 3.18855e-07, No Iterations 2
DICPCG:  Solving for p_rgh, Initial residual = 0.0536004, Final residual = 0.000365214, No Iterations 10
diagonal:  Solving for rho, Initial residual = 0, Final residual = 0, No Iterations 0
time step continuity errors : sum local = 1.44532e-05, global = 7.8153e-16, cumulative = -1.81943e-14
DICPCG:  Solving for p_rgh, Initial residual = 0.0175834, Final residual = 6.73572e-09, No Iterations 45
diagonal:  Solving for rho, Initial residual = 0, Final residual = 0, No Iterations 0
time step continuity errors : sum local = 6.93678e-09, global = 7.26575e-16, cumulative = -1.74678e-14
DILUPBiCGStab:  Solving for epsilon, Initial residual = 0.0630429, Final residual = 4.05467e-08, No Iterations 2
DILUPBiCGStab:  Solving for k, Initial residual = 0.0777887, Final residual = 1.46594e-07, No Iterations 2
ExecutionTime = 0.58 s  ClockTime = 0 s

Courant Number mean: 0.406598 max: 1.09125
Time = 62

diagonal:  Solving for rho, Initial residual = 0, Final residual = 0, No Iterations 0
PIMPLE: iteration 1
DILUPBiCGStab:  Solving for Ux, Initial residual = 0.0215595, Final residual = 9.04339e-08, No Iterations 2
DILUPBiCGStab:  Solving for Uy, Initial residual = 0.017917, Final residual = 1.0762e-07, No Iterations 2
DILUPBiCGStab:  Solving for Uz, Initial residual = 0.0215596, Final residual = 9.04338e-08, No Iterations 2
DILUPBiCGStab:  Solving for h, Initial residual = 0.0217624, Final residual = 2.88944e-07, No Iterations 2
DICPCG:  Solving for p_rgh, Initial residual = 0.0534366, Final residual = 0.000392079, No Iterations 10
diagonal:  Solving for rho, Initial residual = 0, Final residual = 0, No Iterations 0
time step continuity errors : sum local = 1.52299e-05, global = -1.64264e-15, cumulative = -1.91104e-14
DICPCG:  Solving for p_rgh, Initial residual = 0.0171775, Final residual = 6.86895e-09, No Iterations 45
diagonal:  Solving for rho, Initial residual = 0, Final residual = 0, No Iterations 0
time step continuity errors : sum local = 6.38261e-09, global = -9.22197e-16, cumulative = -2.00326e-14
DILUPBiCGStab:  Solving for epsilon, Initial residual = 0.0612188, Final residual = 3.45926e-08, No Iterations 2
DILUPBiCGStab:  Solving for k, Initial residual = 0.0753499, Final residual = 1.28146e-07, No Iterations 2
ExecutionTime = 0.6 s  ClockTime = 0 s

Courant Number mean: 0.394429 max: 1.09287
Time = 64

diagonal:  Solving for rho, Initial residual = 0, Final residual = 0, No Iterations 0
PIMPLE: iteration 1
DILUPBiCGStab:  Solving for Ux, Initial residual = 0.0218954, Final residual = 8.21161e-08, No Iterations 2
DILUPBiCGStab:  Solving for Uy, Initial residual = 0.01796, Final residual = 9.28602e-08, No Iterations 2
DILUPBiCGStab:  Solving for Uz, Initial residual = 0.0218954, Final residual = 8.21162e-08, No Iterations 2
DILUPBiCGStab:  Solving for h, Initial residual = 0.0214615, Final residual = 3.10682e-07, No Iterations 2
DICPCG:  Solving for p_rgh, Initial residual = 0.054839, Final residual = 0.000433738, No Iterations 10
diagonal:  Solving for rho, Initial residual = 0, Final residual = 0, No Iterations 0
time step continuity errors : sum local = 1.6499e-05, global = 2.33779e-15, cumulative = -1.76948e-14
DICPCG:  Solving for p_rgh, Initial residual = 0.0171601, Final residual = 7.06355e-09, No Iterations 45
diagonal:  Solving for rho, Initial residual = 0, Final residual = 0, No Iterations 0
time step continuity errors : sum local = 6.0395e-09, global = -1.71609e-15, cumulative = -1.94109e-14
DILUPBiCGStab:  Solving for epsilon, Initial residual = 0.0595739, Final residual = 3.10659e-08, No Iterations 2
DILUPBiCGStab:  Solving for k, Initial residual = 0.0730524, Final residual = 1.12571e-07, No Iterations 2
ExecutionTime = 0.62 s  ClockTime = 0 s

Courant Number mean: 0.382868 max: 1.09134
Time = 66

diagonal:  Solving for rho, Initial residual = 0, Final residual = 0, No Iterations 0
PIMPLE: iteration 1
DILUPBiCGStab:  Solving for Ux, Initial residual = 0.0223521, Final residual = 7.48346e-08, No Iterations 2
DILUPBiCGStab:  Solving for Uy, Initial residual = 0.0180691, Final residual = 7.864e-08, No Iterations 2
DILUPBiCGStab:  Solving for Uz, Initial residual = 0.0223521, Final residual = 7.48347e-08, No Iterations 2
DILUPBiCGStab:  Solving for h, Initial residual = 0.0212709, Final residual = 3.35924e-07, No Iterations 2
DICPCG:  Solving for p_rgh, Initial residual = 0.0555345, Final residual = 0.000482798, No Iterations 10
diagonal:  Solving for rho, Initial residual = 0, Final residual = 0, No Iterations 0
time step continuity errors : sum local = 1.81005e-05, global = -1.44247e-15, cumulative = -2.08534e-14
DICPCG:  Solving for p_rgh, Initial residual = 0.0172915, Final residual = 7.10258e-09, No Iterations 45
diagonal:  Solving for rho, Initial residual = 0, Final residual = 0, No Iterations 0
time step continuity errors : sum local = 6.01758e-09, global = 4.63159e-16, cumulative = -2.03902e-14
DILUPBiCGStab:  Solving for epsilon, Initial residual = 0.0578927, Final residual = 9.39844e-07, No Iterations 2
DILUPBiCGStab:  Solving for k, Initial residual = 0.0707529, Final residual = 9.91844e-08, No Iterations 2
ExecutionTime = 0.63 s  ClockTime = 0 s

Courant Number mean: 0.371771 max: 1.08748
Time = 68

diagonal:  Solving for rho, Initial residual = 0, Final residual = 0, No Iterations 0
PIMPLE: iteration 1
DILUPBiCGStab:  Solving for Ux, Initial residual = 0.0228772, Final residual = 6.82084e-08, No Iterations 2
DILUPBiCGStab:  Solving for Uy, Initial residual = 0.0182455, Final residual = 6.99675e-08, No Iterations 2
DILUPBiCGStab:  Solving for Uz, Initial residual = 0.0228772, Final residual = 6.82083e-08, No Iterations 2
DILUPBiCGStab:  Solving for h, Initial residual = 0.0210791, Final residual = 3.2037e-07, No Iterations 2
DICPCG:  Solving for p_rgh, Initial residual = 0.0563935, Final residual = 0.000510889, No Iterations 10
diagonal:  Solving for rho, Initial residual = 0, Final residual = 0, No Iterations 0
time step continuity errors : sum local = 1.89038e-05, global = -8.45683e-16, cumulative = -2.12359e-14
DICPCG:  Solving for p_rgh, Initial residual = 0.0173214, Final residual = 7.16867e-09, No Iterations 45
diagonal:  Solving for rho, Initial residual = 0, Final residual = 0, No Iterations 0
time step continuity errors : sum local = 5.82584e-09, global = 2.78767e-15, cumulative = -1.84482e-14
DILUPBiCGStab:  Solving for epsilon, Initial residual = 0.0563065, Final residual = 8.56529e-07, No Iterations 2
DILUPBiCGStab:  Solving for k, Initial residual = 0.0686023, Final residual = 8.76274e-08, No Iterations 2
ExecutionTime = 0.64 s  ClockTime = 0 s

Courant Number mean: 0.361175 max: 1.08226
Time = 70

diagonal:  Solving for rho, Initial residual = 0, Final residual = 0, No Iterations 0
PIMPLE: iteration 1
DILUPBiCGStab:  Solving for Ux, Initial residual = 0.0235048, Final residual = 6.26254e-08, No Iterations 2
DILUPBiCGStab:  Solving for Uy, Initial residual = 0.018508, Final residual = 6.46938e-08, No Iterations 2
DILUPBiCGStab:  Solving for Uz, Initial residual = 0.0235048, Final residual = 6.26253e-08, No Iterations 2
DILUPBiCGStab:  Solving for h, Initial residual = 0.0209395, Final residual = 2.6821e-07, No Iterations 2
DICPCG:  Solving for p_rgh, Initial residual = 0.0575319, Final residual = 0.00052022, No Iterations 10
diagonal:  Solving for rho, Initial residual = 0, Final residual = 0, No Iterations 0
time step continuity errors : sum local = 1.9178e-05, global = -4.82275e-15, cumulative = -2.3271e-14
DICPCG:  Solving for p_rgh, Initial residual = 0.0173495, Final residual = 7.27354e-09, No Iterations 45
diagonal:  Solving for rho, Initial residual = 0, Final residual = 0, No Iterations 0
time step continuity errors : sum local = 5.63839e-09, global = -1.41765e-15, cumulative = -2.46886e-14
DILUPBiCGStab:  Solving for epsilon, Initial residual = 0.0547371, Final residual = 8.24224e-07, No Iterations 2
DILUPBiCGStab:  Solving for k, Initial residual = 0.0663928, Final residual = 7.68697e-08, No Iterations 2
ExecutionTime = 0.66 s  ClockTime = 0 s

Courant Number mean: 0.351058 max: 1.07631
Time = 72

diagonal:  Solving for rho, Initial residual = 0, Final residual = 0, No Iterations 0
PIMPLE: iteration 1
DILUPBiCGStab:  Solving for Ux, Initial residual = 0.0241391, Final residual = 5.76257e-08, No Iterations 2
DILUPBiCGStab:  Solving for Uy, Initial residual = 0.0189083, Final residual = 5.78726e-08, No Iterations 2
DILUPBiCGStab:  Solving for Uz, Initial residual = 0.0241391, Final residual = 5.76257e-08, No Iterations 2
DILUPBiCGStab:  Solving for h, Initial residual = 0.0207654, Final residual = 2.17132e-07, No Iterations 2
DICPCG:  Solving for p_rgh, Initial residual = 0.0584141, Final residual = 0.000550995, No Iterations 10
diagonal:  Solving for rho, Initial residual = 0, Final residual = 0, No Iterations 0
time step continuity errors : sum local = 2.03038e-05, global = 1.2145e-15, cumulative = -2.34741e-14
DICPCG:  Solving for p_rgh, Initial residual = 0.0173968, Final residual = 7.36617e-09, No Iterations 45
diagonal:  Solving for rho, Initial residual = 0, Final residual = 0, No Iterations 0
time step continuity errors : sum local = 5.44796e-09, global = 2.25567e-16, cumulative = -2.32485e-14
DILUPBiCGStab:  Solving for epsilon, Initial residual = 0.0530341, Final residual = 8.09417e-07, No Iterations 2
DILUPBiCGStab:  Solving for k, Initial residual = 0.0641538, Final residual = 6.76951e-08, No Iterations 2
ExecutionTime = 0.67 s  ClockTime = 0 s

Courant Number mean: 0.341484 max: 1.09189
Time = 74

diagonal:  Solving for rho, Initial residual = 0, Final residual = 0, No Iterations 0
PIMPLE: iteration 1
DILUPBiCGStab:  Solving for Ux, Initial residual = 0.0249449, Final residual = 5.30761e-08, No Iterations 2
DILUPBiCGStab:  Solving for Uy, Initial residual = 0.0192684, Final residual = 4.92422e-08, No Iterations 2
DILUPBiCGStab:  Solving for Uz, Initial residual = 0.0249448, Final residual = 5.30761e-08, No Iterations 2
DILUPBiCGStab:  Solving for h, Initial residual = 0.0206319, Final residual = 1.87101e-07, No Iterations 2
DICPCG:  Solving for p_rgh, Initial residual = 0.0601547, Final residual = 0.000581986, No Iterations 10
diagonal:  Solving for rho, Initial residual = 0, Final residual = 0, No Iterations 0
time step continuity errors : sum local = 2.13852e-05, global = -7.36733e-16, cumulative = -2.39853e-14
DICPCG:  Solving for p_rgh, Initial residual = 0.0177349, Final residual = 7.36888e-09, No Iterations 45
diagonal:  Solving for rho, Initial residual = 0, Final residual = 0, No Iterations 0
time step continuity errors : sum local = 5.45481e-09, global = -2.21207e-15, cumulative = -2.61973e-14
DILUPBiCGStab:  Solving for epsilon, Initial residual = 0.0514612, Final residual = 8.15732e-07, No Iterations 2
DILUPBiCGStab:  Solving for k, Initial residual = 0.0620815, Final residual = 6.05461e-08, No Iterations 2
ExecutionTime = 0.69 s  ClockTime = 0 s

Courant Number mean: 0.332346 max: 1.10828
Time = 76

diagonal:  Solving for rho, Initial residual = 0, Final residual = 0, No Iterations 0
PIMPLE: iteration 1
DILUPBiCGStab:  Solving for Ux, Initial residual = 0.0258061, Final residual = 4.86769e-08, No Iterations 2
DILUPBiCGStab:  Solving for Uy, Initial residual = 0.0197117, Final residual = 4.14664e-08, No Iterations 2
DILUPBiCGStab:  Solving for Uz, Initial residual = 0.0258061, Final residual = 4.86767e-08, No Iterations 2
DILUPBiCGStab:  Solving for h, Initial residual = 0.0206828, Final residual = 1.68938e-07, No Iterations 2
DICPCG:  Solving for p_rgh, Initial residual = 0.0630664, Final residual = 0.000522948, No Iterations 13
diagonal:  Solving for rho, Initial residual = 0, Final residual = 0, No Iterations 0
time step continuity errors : sum local = 1.9575e-05, global = 4.08779e-16, cumulative = -2.57886e-14
DICPCG:  Solving for p_rgh, Initial residual = 0.0182791, Final residual = 7.08831e-09, No Iterations 45
diagonal:  Solving for rho, Initial residual = 0, Final residual = 0, No Iterations 0
time step continuity errors : sum local = 3.88033e-09, global = 6.70567e-16, cumulative = -2.5118e-14
DILUPBiCGStab:  Solving for epsilon, Initial residual = 0.0501819, Final residual = 8.12682e-07, No Iterations 2
DILUPBiCGStab:  Solving for k, Initial residual = 0.0601934, Final residual = 5.49251e-08, No Iterations 2
ExecutionTime = 0.71 s  ClockTime = 0 s

Courant Number mean: 0.323607 max: 1.12128
Time = 78

diagonal:  Solving for rho, Initial residual = 0, Final residual = 0, No Iterations 0
PIMPLE: iteration 1
DILUPBiCGStab:  Solving for Ux, Initial residual = 0.0266892, Final residual = 4.34545e-08, No Iterations 2
DILUPBiCGStab:  Solving for Uy, Initial residual = 0.0202347, Final residual = 3.83747e-08, No Iterations 2
DILUPBiCGStab:  Solving for Uz, Initial residual = 0.0266892, Final residual = 4.34545e-08, No Iterations 2
DILUPBiCGStab:  Solving for h, Initial residual = 0.020651, Final residual = 1.58638e-07, No Iterations 2
DICPCG:  Solving for p_rgh, Initial residual = 0.0646873, Final residual = 0.00054385, No Iterations 13
diagonal:  Solving for rho, Initial residual = 0, Final residual = 0, No Iterations 0
time step continuity errors : sum local = 2.03499e-05, global = 3.30588e-16, cumulative = -2.47874e-14
DICPCG:  Solving for p_rgh, Initial residual = 0.0187689, Final residual = 6.71451e-09, No Iterations 45
diagonal:  Solving for rho, Initial residual = 0, Final residual = 0, No Iterations 0
time step continuity errors : sum local = 3.82544e-09, global = -1.9061e-15, cumulative = -2.66935e-14
DILUPBiCGStab:  Solving for epsilon, Initial residual = 0.0489644, Final residual = 7.96107e-07, No Iterations 2
DILUPBiCGStab:  Solving for k, Initial residual = 0.0583292, Final residual = 4.96382e-08, No Iterations 2
ExecutionTime = 0.72 s  ClockTime = 0 s

Courant Number mean: 0.315379 max: 1.13799
Time = 80

diagonal:  Solving for rho, Initial residual = 0, Final residual = 0, No Iterations 0
PIMPLE: iteration 1
DILUPBiCGStab:  Solving for Ux, Initial residual = 0.027678, Final residual = 3.97595e-08, No Iterations 2
DILUPBiCGStab:  Solving for Uy, Initial residual = 0.0208044, Final residual = 3.75409e-08, No Iterations 2
DILUPBiCGStab:  Solving for Uz, Initial residual = 0.027678, Final residual = 3.97595e-08, No Iterations 2
DILUPBiCGStab:  Solving for h, Initial residual = 0.020598, Final residual = 1.55802e-07, No Iterations 2
DICPCG:  Solving for p_rgh, Initial residual = 0.0667221, Final residual = 0.000561128, No Iterations 13
diagonal:  Solving for rho, Initial residual = 0, Final residual = 0, No Iterations 0
time step continuity errors : sum local = 2.09452e-05, global = 2.91631e-15, cumulative = -2.37772e-14
DICPCG:  Solving for p_rgh, Initial residual = 0.0194, Final residual = 8.84405e-09, No Iterations 44
diagonal:  Solving for rho, Initial residual = 0, Final residual = 0, No Iterations 0
time step continuity errors : sum local = 3.53741e-09, global = 3.23459e-15, cumulative = -2.05426e-14
DILUPBiCGStab:  Solving for epsilon, Initial residual = 0.0477714, Final residual = 7.55603e-07, No Iterations 2
DILUPBiCGStab:  Solving for k, Initial residual = 0.0565218, Final residual = 4.43785e-08, No Iterations 2
ExecutionTime = 0.74 s  ClockTime = 0 s

Courant Number mean: 0.30753 max: 1.15281
Time = 82

diagonal:  Solving for rho, Initial residual = 0, Final residual = 0, No Iterations 0
PIMPLE: iteration 1
DILUPBiCGStab:  Solving for Ux, Initial residual = 0.0287084, Final residual = 4.79602e-08, No Iterations 2
DILUPBiCGStab:  Solving for Uy, Initial residual = 0.0214471, Final residual = 9.02546e-07, No Iterations 2
DILUPBiCGStab:  Solving for Uz, Initial residual = 0.0287084, Final residual = 4.79603e-08, No Iterations 2
DILUPBiCGStab:  Solving for h, Initial residual = 0.0205349, Final residual = 1.55221e-07, No Iterations 2
DICPCG:  Solving for p_rgh, Initial residual = 0.0696921, Final residual = 0.000573904, No Iterations 13
diagonal:  Solving for rho, Initial residual = 0, Final residual = 0, No Iterations 0
time step continuity errors : sum local = 2.13919e-05, global = 4.9684e-17, cumulative = -2.04929e-14
DICPCG:  Solving for p_rgh, Initial residual = 0.019881, Final residual = 7.45489e-09, No Iterations 44
diagonal:  Solving for rho, Initial residual = 0, Final residual = 0, No Iterations 0
time step continuity errors : sum local = 3.45533e-09, global = -2.74527e-15, cumulative = -2.32382e-14
DILUPBiCGStab:  Solving for epsilon, Initial residual = 0.0464966, Final residual = 7.01252e-07, No Iterations 2
DILUPBiCGStab:  Solving for k, Initial residual = 0.0547284, Final residual = 3.9787e-08, No Iterations 2
ExecutionTime = 0.75 s  ClockTime = 0 s

Courant Number mean: 0.30013 max: 1.16297
Time = 84

diagonal:  Solving for rho, Initial residual = 0, Final residual = 0, No Iterations 0
PIMPLE: iteration 1
DILUPBiCGStab:  Solving for Ux, Initial residual = 0.0297683, Final residual = 8.52816e-08, No Iterations 2
DILUPBiCGStab:  Solving for Uy, Initial residual = 0.0220707, Final residual = 4.32074e-08, No Iterations 2
DILUPBiCGStab:  Solving for Uz, Initial residual = 0.0297683, Final residual = 8.52799e-08, No Iterations 2
DILUPBiCGStab:  Solving for h, Initial residual = 0.0204893, Final residual = 1.57568e-07, No Iterations 2
DICPCG:  Solving for p_rgh, Initial residual = 0.0715733, Final residual = 0.00059738, No Iterations 13
diagonal:  Solving for rho, Initial residual = 0, Final residual = 0, No Iterations 0
time step continuity errors : sum local = 2.22384e-05, global = 4.91446e-15, cumulative = -1.83237e-14
DICPCG:  Solving for p_rgh, Initial residual = 0.0204091, Final residual = 6.7914e-09, No Iterations 43
diagonal:  Solving for rho, Initial residual = 0, Final residual = 0, No Iterations 0
time step continuity errors : sum local = 2.97735e-09, global = 3.24034e-15, cumulative = -1.50834e-14
DILUPBiCGStab:  Solving for epsilon, Initial residual = 0.0452678, Final residual = 6.65481e-07, No Iterations 2
DILUPBiCGStab:  Solving for k, Initial residual = 0.0531054, Final residual = 3.65309e-08, No Iterations 2
ExecutionTime = 0.78 s  ClockTime = 0 s

Courant Number mean: 0.293299 max: 1.16881
Time = 86

diagonal:  Solving for rho, Initial residual = 0, Final residual = 0, No Iterations 0
PIMPLE: iteration 1
DILUPBiCGStab:  Solving for Ux, Initial residual = 0.0308778, Final residual = 1.85388e-07, No Iterations 2
DILUPBiCGStab:  Solving for Uy, Initial residual = 0.0226306, Final residual = 1.80412e-07, No Iterations 2
DILUPBiCGStab:  Solving for Uz, Initial residual = 0.0308778, Final residual = 1.85381e-07, No Iterations 2
DILUPBiCGStab:  Solving for h, Initial residual = 0.0205245, Final residual = 1.57288e-07, No Iterations 2
DICPCG:  Solving for p_rgh, Initial residual = 0.0751822, Final residual = 0.000611233, No Iterations 13
diagonal:  Solving for rho, Initial residual = 0, Final residual = 0, No Iterations 0
time step continuity errors : sum local = 2.25745e-05, global = -4.99375e-15, cumulative = -2.00771e-14
DICPCG:  Solving for p_rgh, Initial residual = 0.0212841, Final residual = 7.50518e-09, No Iterations 43
diagonal:  Solving for rho, Initial residual = 0, Final residual = 0, No Iterations 0
time step continuity errors : sum local = 2.32428e-09, global = -3.8101e-15, cumulative = -2.38872e-14
DILUPBiCGStab:  Solving for epsilon, Initial residual = 0.0443317, Final residual = 6.66531e-07, No Iterations 2
DILUPBiCGStab:  Solving for k, Initial residual = 0.0517193, Final residual = 3.57663e-08, No Iterations 2
ExecutionTime = 0.78 s  ClockTime = 0 s

Courant Number mean: 0.287017 max: 1.17087
Time = 88

diagonal:  Solving for rho, Initial residual = 0, Final residual = 0, No Iterations 0
PIMPLE: iteration 1
DILUPBiCGStab:  Solving for Ux, Initial residual = 0.0319506, Final residual = 4.83248e-09, No Iterations 3
DILUPBiCGStab:  Solving for Uy, Initial residual = 0.023185, Final residual = 3.09796e-09, No Iterations 3
DILUPBiCGStab:  Solving for Uz, Initial residual = 0.0319506, Final residual = 4.83247e-09, No Iterations 3
DILUPBiCGStab:  Solving for h, Initial residual = 0.02044, Final residual = 1.58617e-07, No Iterations 2
DICPCG:  Solving for p_rgh, Initial residual = 0.078074, Final residual = 0.000647181, No Iterations 13
diagonal:  Solving for rho, Initial residual = 0, Final residual = 0, No Iterations 0
time step continuity errors : sum local = 2.35992e-05, global = 4.08717e-15, cumulative = -1.98001e-14
DICPCG:  Solving for p_rgh, Initial residual = 0.0220501, Final residual = 8.43286e-09, No Iterations 44
diagonal:  Solving for rho, Initial residual = 0, Final residual = 0, No Iterations 0
time step continuity errors : sum local = 1.85217e-09, global = 3.90741e-15, cumulative = -1.58927e-14
DILUPBiCGStab:  Solving for epsilon, Initial residual = 0.043319, Final residual = 7.16043e-07, No Iterations 2
DILUPBiCGStab:  Solving for k, Initial residual = 0.0503903, Final residual = 3.68228e-08, No Iterations 2
ExecutionTime = 0.82 s  ClockTime = 0 s

Courant Number mean: 0.28134 max: 1.16971
Time = 90

diagonal:  Solving for rho, Initial residual = 0, Final residual = 0, No Iterations 0
PIMPLE: iteration 1
DILUPBiCGStab:  Solving for Ux, Initial residual = 0.033056, Final residual = 4.71435e-07, No Iterations 2
DILUPBiCGStab:  Solving for Uy, Initial residual = 0.0237911, Final residual = 1.89157e-09, No Iterations 3
DILUPBiCGStab:  Solving for Uz, Initial residual = 0.033056, Final residual = 4.71425e-07, No Iterations 2
DILUPBiCGStab:  Solving for h, Initial residual = 0.0203645, Final residual = 1.6298e-07, No Iterations 2
DICPCG:  Solving for p_rgh, Initial residual = 0.0784435, Final residual = 0.000677895, No Iterations 13
diagonal:  Solving for rho, Initial residual = 0, Final residual = 0, No Iterations 0
time step continuity errors : sum local = 2.47421e-05, global = -9.39541e-17, cumulative = -1.59866e-14
DICPCG:  Solving for p_rgh, Initial residual = 0.0226104, Final residual = 4.575e-09, No Iterations 45
diagonal:  Solving for rho, Initial residual = 0, Final residual = 0, No Iterations 0
time step continuity errors : sum local = 1.77231e-09, global = 2.07173e-15, cumulative = -1.39149e-14
DILUPBiCGStab:  Solving for epsilon, Initial residual = 0.0425377, Final residual = 8.17721e-07, No Iterations 2
DILUPBiCGStab:  Solving for k, Initial residual = 0.0491835, Final residual = 3.90478e-08, No Iterations 2
ExecutionTime = 0.83 s  ClockTime = 0 s

Courant Number mean: 0.276366 max: 1.1657
Time = 92

diagonal:  Solving for rho, Initial residual = 0, Final residual = 0, No Iterations 0
PIMPLE: iteration 1
DILUPBiCGStab:  Solving for Ux, Initial residual = 0.034191, Final residual = 2.32219e-07, No Iterations 2
DILUPBiCGStab:  Solving for Uy, Initial residual = 0.0243042, Final residual = 3.68887e-07, No Iterations 2
DILUPBiCGStab:  Solving for Uz, Initial residual = 0.034191, Final residual = 2.32231e-07, No Iterations 2
DILUPBiCGStab:  Solving for h, Initial residual = 0.0202656, Final residual = 1.65324e-07, No Iterations 2
DICPCG:  Solving for p_rgh, Initial residual = 0.0827451, Final residual = 0.000693779, No Iterations 13
diagonal:  Solving for rho, Initial residual = 0, Final residual = 0, No Iterations 0
time step continuity errors : sum local = 2.52285e-05, global = -7.95999e-16, cumulative = -1.47109e-14
DICPCG:  Solving for p_rgh, Initial residual = 0.0235079, Final residual = 5.59446e-09, No Iterations 45
diagonal:  Solving for rho, Initial residual = 0, Final residual = 0, No Iterations 0
time step continuity errors : sum local = 1.38505e-09, global = -1.27799e-15, cumulative = -1.59889e-14
DILUPBiCGStab:  Solving for epsilon, Initial residual = 0.0418125, Final residual = 9.57228e-07, No Iterations 2
DILUPBiCGStab:  Solving for k, Initial residual = 0.0481146, Final residual = 4.20834e-08, No Iterations 2
ExecutionTime = 0.85 s  ClockTime = 0 s

Courant Number mean: 0.271788 max: 1.15914
Time = 94

diagonal:  Solving for rho, Initial residual = 0, Final residual = 0, No Iterations 0
PIMPLE: iteration 1
DILUPBiCGStab:  Solving for Ux, Initial residual = 0.0353122, Final residual = 1.75228e-07, No Iterations 2
DILUPBiCGStab:  Solving for Uy, Initial residual = 0.0246683, Final residual = 5.02769e-07, No Iterations 2
DILUPBiCGStab:  Solving for Uz, Initial residual = 0.0353122, Final residual = 1.75225e-07, No Iterations 2
DILUPBiCGStab:  Solving for h, Initial residual = 0.0202538, Final residual = 1.75947e-07, No Iterations 2
DICPCG:  Solving for p_rgh, Initial residual = 0.0852528, Final residual = 0.000703554, No Iterations 13
diagonal:  Solving for rho, Initial residual = 0, Final residual = 0, No Iterations 0
time step continuity errors : sum local = 2.58958e-05, global = 1.96963e-16, cumulative = -1.57919e-14
DICPCG:  Solving for p_rgh, Initial residual = 0.0244584, Final residual = 5.64077e-09, No Iterations 45
diagonal:  Solving for rho, Initial residual = 0, Final residual = 0, No Iterations 0
time step continuity errors : sum local = 2.49413e-09, global = 1.49435e-16, cumulative = -1.56425e-14
DILUPBiCGStab:  Solving for epsilon, Initial residual = 0.0409684, Final residual = 3.46473e-08, No Iterations 2
DILUPBiCGStab:  Solving for k, Initial residual = 0.0471545, Final residual = 4.55683e-08, No Iterations 2
ExecutionTime = 0.86 s  ClockTime = 1 s

Courant Number mean: 0.267591 max: 1.1501
Time = 96

diagonal:  Solving for rho, Initial residual = 0, Final residual = 0, No Iterations 0
PIMPLE: iteration 1
DILUPBiCGStab:  Solving for Ux, Initial residual = 0.0363901, Final residual = 2.42973e-07, No Iterations 2
DILUPBiCGStab:  Solving for Uy, Initial residual = 0.024919, Final residual = 1.21638e-09, No Iterations 3
DILUPBiCGStab:  Solving for Uz, Initial residual = 0.0363901, Final residual = 2.42978e-07, No Iterations 2
DILUPBiCGStab:  Solving for h, Initial residual = 0.0202051, Final residual = 1.87437e-07, No Iterations 2
DICPCG:  Solving for p_rgh, Initial residual = 0.0871327, Final residual = 0.000716704, No Iterations 13
diagonal:  Solving for rho, Initial residual = 0, Final residual = 0, No Iterations 0
time step continuity errors : sum local = 2.66556e-05, global = -4.29693e-15, cumulative = -1.99394e-14
DICPCG:  Solving for p_rgh, Initial residual = 0.0249583, Final residual = 5.11319e-09, No Iterations 45
diagonal:  Solving for rho, Initial residual = 0, Final residual = 0, No Iterations 0
time step continuity errors : sum local = 3.0126e-09, global = -3.77699e-15, cumulative = -2.37164e-14
DILUPBiCGStab:  Solving for epsilon, Initial residual = 0.040169, Final residual = 3.94724e-08, No Iterations 2
DILUPBiCGStab:  Solving for k, Initial residual = 0.0462307, Final residual = 4.82454e-08, No Iterations 2
ExecutionTime = 0.88 s  ClockTime = 1 s

Courant Number mean: 0.263899 max: 1.14088
Time = 98

diagonal:  Solving for rho, Initial residual = 0, Final residual = 0, No Iterations 0
PIMPLE: iteration 1
DILUPBiCGStab:  Solving for Ux, Initial residual = 0.0372894, Final residual = 5.74807e-07, No Iterations 2
DILUPBiCGStab:  Solving for Uy, Initial residual = 0.0250676, Final residual = 3.55796e-07, No Iterations 2
DILUPBiCGStab:  Solving for Uz, Initial residual = 0.0372895, Final residual = 5.74905e-07, No Iterations 2
DILUPBiCGStab:  Solving for h, Initial residual = 0.020148, Final residual = 2.02929e-07, No Iterations 2
DICPCG:  Solving for p_rgh, Initial residual = 0.0883426, Final residual = 0.000718623, No Iterations 13
diagonal:  Solving for rho, Initial residual = 0, Final residual = 0, No Iterations 0
time step continuity errors : sum local = 2.7376e-05, global = 4.26579e-15, cumulative = -1.94506e-14
DICPCG:  Solving for p_rgh, Initial residual = 0.0256146, Final residual = 9.18367e-09, No Iterations 44
diagonal:  Solving for rho, Initial residual = 0, Final residual = 0, No Iterations 0
time step continuity errors : sum local = 4.4141e-09, global = 3.04132e-15, cumulative = -1.64093e-14
DILUPBiCGStab:  Solving for epsilon, Initial residual = 0.0391105, Final residual = 4.35913e-08, No Iterations 2
DILUPBiCGStab:  Solving for k, Initial residual = 0.0453135, Final residual = 5.04444e-08, No Iterations 2
ExecutionTime = 0.89 s  ClockTime = 1 s

Courant Number mean: 0.260885 max: 1.15586
Time = 100

diagonal:  Solving for rho, Initial residual = 0, Final residual = 0, No Iterations 0
PIMPLE: iteration 1
DILUPBiCGStab:  Solving for Ux, Initial residual = 0.0380394, Final residual = 5.20854e-07, No Iterations 2
DILUPBiCGStab:  Solving for Uy, Initial residual = 0.0251171, Final residual = 1.42034e-07, No Iterations 2
DILUPBiCGStab:  Solving for Uz, Initial residual = 0.0380394, Final residual = 5.20814e-07, No Iterations 2
DILUPBiCGStab:  Solving for h, Initial residual = 0.0200849, Final residual = 2.25723e-07, No Iterations 2
DICPCG:  Solving for p_rgh, Initial residual = 0.0896191, Final residual = 0.000727725, No Iterations 13
diagonal:  Solving for rho, Initial residual = 0, Final residual = 0, No Iterations 0
time step continuity errors : sum local = 2.76614e-05, global = -1.26697e-15, cumulative = -1.76763e-14
DICPCG:  Solving for p_rgh, Initial residual = 0.0256834, Final residual = 7.86289e-09, No Iterations 44
diagonal:  Solving for rho, Initial residual = 0, Final residual = 0, No Iterations 0
time step continuity errors : sum local = 4.04081e-09, global = -2.81489e-15, cumulative = -2.04911e-14
DILUPBiCGStab:  Solving for epsilon, Initial residual = 0.0378717, Final residual = 4.69961e-08, No Iterations 2
DILUPBiCGStab:  Solving for k, Initial residual = 0.0444519, Final residual = 5.28589e-08, No Iterations 2
ExecutionTime = 0.91 s  ClockTime = 1 s

Courant Number mean: 0.258381 max: 1.16589
Time = 102

diagonal:  Solving for rho, Initial residual = 0, Final residual = 0, No Iterations 0
PIMPLE: iteration 1
DILUPBiCGStab:  Solving for Ux, Initial residual = 0.0385459, Final residual = 1.39201e-07, No Iterations 2
DILUPBiCGStab:  Solving for Uy, Initial residual = 0.0251011, Final residual = 8.29373e-08, No Iterations 2
DILUPBiCGStab:  Solving for Uz, Initial residual = 0.038546, Final residual = 1.392e-07, No Iterations 2
DILUPBiCGStab:  Solving for h, Initial residual = 0.0200156, Final residual = 2.59013e-07, No Iterations 2
DICPCG:  Solving for p_rgh, Initial residual = 0.0887476, Final residual = 0.000732193, No Iterations 13
diagonal:  Solving for rho, Initial residual = 0, Final residual = 0, No Iterations 0
time step continuity errors : sum local = 2.82327e-05, global = -1.48779e-15, cumulative = -2.19789e-14
DICPCG:  Solving for p_rgh, Initial residual = 0.0258484, Final residual = 7.7222e-09, No Iterations 44
diagonal:  Solving for rho, Initial residual = 0, Final residual = 0, No Iterations 0
time step continuity errors : sum local = 5.36223e-09, global = 2.81326e-15, cumulative = -1.91657e-14
DILUPBiCGStab:  Solving for epsilon, Initial residual = 0.036148, Final residual = 4.92836e-08, No Iterations 2
DILUPBiCGStab:  Solving for k, Initial residual = 0.0434449, Final residual = 5.57098e-08, No Iterations 2
ExecutionTime = 0.92 s  ClockTime = 1 s

Courant Number mean: 0.256344 max: 1.17145
Time = 104

diagonal:  Solving for rho, Initial residual = 0, Final residual = 0, No Iterations 0
PIMPLE: iteration 1
DILUPBiCGStab:  Solving for Ux, Initial residual = 0.0387558, Final residual = 7.05469e-08, No Iterations 2
DILUPBiCGStab:  Solving for Uy, Initial residual = 0.0250155, Final residual = 5.90734e-08, No Iterations 2
DILUPBiCGStab:  Solving for Uz, Initial residual = 0.0387558, Final residual = 7.05467e-08, No Iterations 2
DILUPBiCGStab:  Solving for h, Initial residual = 0.0198976, Final residual = 3.75072e-07, No Iterations 2
DICPCG:  Solving for p_rgh, Initial residual = 0.0870961, Final residual = 0.00073538, No Iterations 13
diagonal:  Solving for rho, Initial residual = 0, Final residual = 0, No Iterations 0
time step continuity errors : sum local = 2.85864e-05, global = -1.5129e-15, cumulative = -2.06786e-14
DICPCG:  Solving for p_rgh, Initial residual = 0.0256951, Final residual = 9.29043e-09, No Iterations 44
diagonal:  Solving for rho, Initial residual = 0, Final residual = 0, No Iterations 0
time step continuity errors : sum local = 6.06467e-09, global = -9.55831e-17, cumulative = -2.07742e-14
DILUPBiCGStab:  Solving for epsilon, Initial residual = 0.0343624, Final residual = 5.0583e-08, No Iterations 2
DILUPBiCGStab:  Solving for k, Initial residual = 0.0424063, Final residual = 5.93847e-08, No Iterations 2
ExecutionTime = 0.94 s  ClockTime = 1 s

Courant Number mean: 0.254941 max: 1.17318
Time = 106

diagonal:  Solving for rho, Initial residual = 0, Final residual = 0, No Iterations 0
PIMPLE: iteration 1
DILUPBiCGStab:  Solving for Ux, Initial residual = 0.0387452, Final residual = 4.89423e-08, No Iterations 2
DILUPBiCGStab:  Solving for Uy, Initial residual = 0.0249086, Final residual = 4.97732e-08, No Iterations 2
DILUPBiCGStab:  Solving for Uz, Initial residual = 0.0387452, Final residual = 4.89425e-08, No Iterations 2
DILUPBiCGStab:  Solving for h, Initial residual = 0.0197642, Final residual = 7.83911e-09, No Iterations 3
DICPCG:  Solving for p_rgh, Initial residual = 0.0858507, Final residual = 0.000733894, No Iterations 13
diagonal:  Solving for rho, Initial residual = 0, Final residual = 0, No Iterations 0
time step continuity errors : sum local = 2.86455e-05, global = 3.03456e-15, cumulative = -1.77396e-14
DICPCG:  Solving for p_rgh, Initial residual = 0.0257522, Final residual = 7.17496e-09, No Iterations 45
diagonal:  Solving for rho, Initial residual = 0, Final residual = 0, No Iterations 0
time step continuity errors : sum local = 6.70835e-09, global = -2.88901e-15, cumulative = -2.06286e-14
DILUPBiCGStab:  Solving for epsilon, Initial residual = 0.0322977, Final residual = 5.07241e-08, No Iterations 2
DILUPBiCGStab:  Solving for k, Initial residual = 0.0412287, Final residual = 6.34503e-08, No Iterations 2
ExecutionTime = 0.96 s  ClockTime = 1 s

Courant Number mean: 0.254166 max: 1.17168
Time = 108

diagonal:  Solving for rho, Initial residual = 0, Final residual = 0, No Iterations 0
PIMPLE: iteration 1
DILUPBiCGStab:  Solving for Ux, Initial residual = 0.0383904, Final residual = 3.87804e-08, No Iterations 2
DILUPBiCGStab:  Solving for Uy, Initial residual = 0.0247999, Final residual = 4.75539e-08, No Iterations 2
DILUPBiCGStab:  Solving for Uz, Initial residual = 0.0383904, Final residual = 3.87804e-08, No Iterations 2
DILUPBiCGStab:  Solving for h, Initial residual = 0.019561, Final residual = 8.34541e-07, No Iterations 2
DICPCG:  Solving for p_rgh, Initial residual = 0.0840638, Final residual = 0.000712034, No Iterations 13
diagonal:  Solving for rho, Initial residual = 0, Final residual = 0, No Iterations 0
time step continuity errors : sum local = 2.79216e-05, global = 3.17269e-15, cumulative = -1.74559e-14
DICPCG:  Solving for p_rgh, Initial residual = 0.0256384, Final residual = 8.30744e-09, No Iterations 45
diagonal:  Solving for rho, Initial residual = 0, Final residual = 0, No Iterations 0
time step continuity errors : sum local = 6.91859e-09, global = 7.90537e-17, cumulative = -1.73769e-14
DILUPBiCGStab:  Solving for epsilon, Initial residual = 0.0303592, Final residual = 4.99927e-08, No Iterations 2
DILUPBiCGStab:  Solving for k, Initial residual = 0.0401671, Final residual = 6.78366e-08, No Iterations 2
ExecutionTime = 0.97 s  ClockTime = 1 s

Courant Number mean: 0.253953 max: 1.16746
Time = 110

diagonal:  Solving for rho, Initial residual = 0, Final residual = 0, No Iterations 0
PIMPLE: iteration 1
DILUPBiCGStab:  Solving for Ux, Initial residual = 0.0377448, Final residual = 9.9386e-07, No Iterations 2
[...]
DILUPBiCGStab:  Solving for h, Initial residual = 0.000754226, Final residual = 7.29621e-09, No Iterations 1
DICPCG:  Solving for p_rgh, Initial residual = 0.000386762, Final residual = 2.30605e-06, No Iterations 27
diagonal:  Solving for rho, Initial residual = 0, Final residual = 0, No Iterations 0
time step continuity errors : sum local = 1.34648e-07, global = -4.24015e-16, cumulative = 8.47494e-15
DICPCG:  Solving for p_rgh, Initial residual = 5.26728e-05, Final residual = 5.64705e-09, No Iterations 35
diagonal:  Solving for rho, Initial residual = 0, Final residual = 0, No Iterations 0
time step continuity errors : sum local = 1.79249e-09, global = 2.02445e-15, cumulative = 1.04994e-14
DILUPBiCGStab:  Solving for epsilon, Initial residual = 0.000147584, Final residual = 2.64731e-07, No Iterations 1
DILUPBiCGStab:  Solving for k, Initial residual = 0.000263742, Final residual = 8.92522e-09, No Iterations 1
ExecutionTime = 15.91 s  ClockTime = 16 s

Courant Number mean: 0.0810783 max: 0.635484
Time = 1976

diagonal:  Solving for rho, Initial residual = 0, Final residual = 0, No Iterations 0
PIMPLE: iteration 1
DILUPBiCGStab:  Solving for Ux, Initial residual = 0.000413391, Final residual = 5.65971e-07, No Iterations 1
DILUPBiCGStab:  Solving for Uy, Initial residual = 0.000413804, Final residual = 6.09703e-07, No Iterations 1
DILUPBiCGStab:  Solving for Uz, Initial residual = 0.000413435, Final residual = 5.6629e-07, No Iterations 1
DILUPBiCGStab:  Solving for h, Initial residual = 0.000755501, Final residual = 7.30909e-09, No Iterations 1
DICPCG:  Solving for p_rgh, Initial residual = 0.000384851, Final residual = 2.29229e-06, No Iterations 27
diagonal:  Solving for rho, Initial residual = 0, Final residual = 0, No Iterations 0
time step continuity errors : sum local = 1.34163e-07, global = -1.17584e-15, cumulative = 9.32354e-15
DICPCG:  Solving for p_rgh, Initial residual = 5.25174e-05, Final residual = 5.66308e-09, No Iterations 35
diagonal:  Solving for rho, Initial residual = 0, Final residual = 0, No Iterations 0
time step continuity errors : sum local = 1.82014e-09, global = -6.68267e-16, cumulative = 8.65528e-15
DILUPBiCGStab:  Solving for epsilon, Initial residual = 0.000148529, Final residual = 2.6373e-07, No Iterations 1
DILUPBiCGStab:  Solving for k, Initial residual = 0.000265559, Final residual = 9.00364e-09, No Iterations 1
ExecutionTime = 15.92 s  ClockTime = 16 s

Courant Number mean: 0.0810835 max: 0.635251
Time = 1978

diagonal:  Solving for rho, Initial residual = 0, Final residual = 0, No Iterations 0
PIMPLE: iteration 1
DILUPBiCGStab:  Solving for Ux, Initial residual = 0.000412217, Final residual = 5.69831e-07, No Iterations 1
DILUPBiCGStab:  Solving for Uy, Initial residual = 0.000411756, Final residual = 6.1107e-07, No Iterations 1
DILUPBiCGStab:  Solving for Uz, Initial residual = 0.000412362, Final residual = 5.69874e-07, No Iterations 1
DILUPBiCGStab:  Solving for h, Initial residual = 0.000756715, Final residual = 7.31691e-09, No Iterations 1
DICPCG:  Solving for p_rgh, Initial residual = 0.000385171, Final residual = 2.30371e-06, No Iterations 27
diagonal:  Solving for rho, Initial residual = 0, Final residual = 0, No Iterations 0
time step continuity errors : sum local = 1.3485e-07, global = 2.04529e-15, cumulative = 1.07006e-14
DICPCG:  Solving for p_rgh, Initial residual = 5.30769e-05, Final residual = 5.82664e-09, No Iterations 35
diagonal:  Solving for rho, Initial residual = 0, Final residual = 0, No Iterations 0
time step continuity errors : sum local = 1.78796e-09, global = -4.04947e-15, cumulative = 6.6511e-15
DILUPBiCGStab:  Solving for epsilon, Initial residual = 0.000149411, Final residual = 2.62537e-07, No Iterations 1
DILUPBiCGStab:  Solving for k, Initial residual = 0.000267327, Final residual = 9.07758e-09, No Iterations 1
ExecutionTime = 15.94 s  ClockTime = 16 s

Courant Number mean: 0.0810885 max: 0.635012
Time = 1980

diagonal:  Solving for rho, Initial residual = 0, Final residual = 0, No Iterations 0
PIMPLE: iteration 1
DILUPBiCGStab:  Solving for Ux, Initial residual = 0.000410643, Final residual = 5.73784e-07, No Iterations 1
DILUPBiCGStab:  Solving for Uy, Initial residual = 0.000408951, Final residual = 6.08676e-07, No Iterations 1
DILUPBiCGStab:  Solving for Uz, Initial residual = 0.000410667, Final residual = 5.73787e-07, No Iterations 1
DILUPBiCGStab:  Solving for h, Initial residual = 0.000757876, Final residual = 7.32092e-09, No Iterations 1
DICPCG:  Solving for p_rgh, Initial residual = 0.000385892, Final residual = 2.28405e-06, No Iterations 27
diagonal:  Solving for rho, Initial residual = 0, Final residual = 0, No Iterations 0
time step continuity errors : sum local = 1.3406e-07, global = 4.78764e-15, cumulative = 1.14387e-14
DICPCG:  Solving for p_rgh, Initial residual = 5.29293e-05, Final residual = 5.72088e-09, No Iterations 35
diagonal:  Solving for rho, Initial residual = 0, Final residual = 0, No Iterations 0
time step continuity errors : sum local = 1.77951e-09, global = 9.52372e-15, cumulative = 2.09625e-14
DILUPBiCGStab:  Solving for epsilon, Initial residual = 0.000150214, Final residual = 2.61161e-07, No Iterations 1
DILUPBiCGStab:  Solving for k, Initial residual = 0.000269061, Final residual = 9.14823e-09, No Iterations 1
ExecutionTime = 15.96 s  ClockTime = 16 s

Courant Number mean: 0.0810932 max: 0.634765
Time = 1982

diagonal:  Solving for rho, Initial residual = 0, Final residual = 0, No Iterations 0
PIMPLE: iteration 1
DILUPBiCGStab:  Solving for Ux, Initial residual = 0.000408948, Final residual = 5.77139e-07, No Iterations 1
DILUPBiCGStab:  Solving for Uy, Initial residual = 0.000406973, Final residual = 6.10801e-07, No Iterations 1
DILUPBiCGStab:  Solving for Uz, Initial residual = 0.000408943, Final residual = 5.76993e-07, No Iterations 1
DILUPBiCGStab:  Solving for h, Initial residual = 0.000758973, Final residual = 7.32235e-09, No Iterations 1
DICPCG:  Solving for p_rgh, Initial residual = 0.000387865, Final residual = 2.27114e-06, No Iterations 27
diagonal:  Solving for rho, Initial residual = 0, Final residual = 0, No Iterations 0
time step continuity errors : sum local = 1.3418e-07, global = -7.06165e-15, cumulative = 1.39008e-14
DICPCG:  Solving for p_rgh, Initial residual = 5.34215e-05, Final residual = 5.75016e-09, No Iterations 35
diagonal:  Solving for rho, Initial residual = 0, Final residual = 0, No Iterations 0
time step continuity errors : sum local = 1.80563e-09, global = -4.97621e-15, cumulative = 8.92459e-15
DILUPBiCGStab:  Solving for epsilon, Initial residual = 0.000150949, Final residual = 2.59587e-07, No Iterations 1
DILUPBiCGStab:  Solving for k, Initial residual = 0.000270725, Final residual = 9.21359e-09, No Iterations 1
ExecutionTime = 15.99 s  ClockTime = 16 s

Courant Number mean: 0.0810974 max: 0.634513
Time = 1984

diagonal:  Solving for rho, Initial residual = 0, Final residual = 0, No Iterations 0
PIMPLE: iteration 1
DILUPBiCGStab:  Solving for Ux, Initial residual = 0.000407269, Final residual = 5.80431e-07, No Iterations 1
DILUPBiCGStab:  Solving for Uy, Initial residual = 0.00040402, Final residual = 6.09204e-07, No Iterations 1
DILUPBiCGStab:  Solving for Uz, Initial residual = 0.000407134, Final residual = 5.80171e-07, No Iterations 1
DILUPBiCGStab:  Solving for h, Initial residual = 0.000760156, Final residual = 7.32142e-09, No Iterations 1
DICPCG:  Solving for p_rgh, Initial residual = 0.000387204, Final residual = 2.21749e-06, No Iterations 27
diagonal:  Solving for rho, Initial residual = 0, Final residual = 0, No Iterations 0
time step continuity errors : sum local = 1.32446e-07, global = -1.52406e-15, cumulative = 7.40053e-15
DICPCG:  Solving for p_rgh, Initial residual = 5.3235e-05, Final residual = 5.76765e-09, No Iterations 35
diagonal:  Solving for rho, Initial residual = 0, Final residual = 0, No Iterations 0
time step continuity errors : sum local = 1.8033e-09, global = -4.04558e-15, cumulative = 3.35494e-15
DILUPBiCGStab:  Solving for epsilon, Initial residual = 0.000151611, Final residual = 2.57807e-07, No Iterations 1
DILUPBiCGStab:  Solving for k, Initial residual = 0.000272299, Final residual = 9.27351e-09, No Iterations 1
ExecutionTime = 16 s  ClockTime = 16 s

Courant Number mean: 0.0811012 max: 0.634255
Time = 1986

diagonal:  Solving for rho, Initial residual = 0, Final residual = 0, No Iterations 0
PIMPLE: iteration 1
DILUPBiCGStab:  Solving for Ux, Initial residual = 0.000405869, Final residual = 5.83907e-07, No Iterations 1
DILUPBiCGStab:  Solving for Uy, Initial residual = 0.00040166, Final residual = 6.09276e-07, No Iterations 1
DILUPBiCGStab:  Solving for Uz, Initial residual = 0.000405962, Final residual = 5.84074e-07, No Iterations 1
DILUPBiCGStab:  Solving for h, Initial residual = 0.000761332, Final residual = 7.31883e-09, No Iterations 1
DICPCG:  Solving for p_rgh, Initial residual = 0.000389013, Final residual = 2.22676e-06, No Iterations 27
diagonal:  Solving for rho, Initial residual = 0, Final residual = 0, No Iterations 0
time step continuity errors : sum local = 1.33053e-07, global = 3.6416e-15, cumulative = 6.99654e-15
DICPCG:  Solving for p_rgh, Initial residual = 5.37122e-05, Final residual = 5.80246e-09, No Iterations 35
diagonal:  Solving for rho, Initial residual = 0, Final residual = 0, No Iterations 0
time step continuity errors : sum local = 1.83932e-09, global = 3.1471e-15, cumulative = 1.01436e-14
DILUPBiCGStab:  Solving for epsilon, Initial residual = 0.000152203, Final residual = 2.55787e-07, No Iterations 1
DILUPBiCGStab:  Solving for k, Initial residual = 0.000273808, Final residual = 9.3276e-09, No Iterations 1
ExecutionTime = 16.02 s  ClockTime = 16 s

Courant Number mean: 0.0811047 max: 0.633992
Time = 1988

diagonal:  Solving for rho, Initial residual = 0, Final residual = 0, No Iterations 0
PIMPLE: iteration 1
DILUPBiCGStab:  Solving for Ux, Initial residual = 0.00040438, Final residual = 5.87558e-07, No Iterations 1
DILUPBiCGStab:  Solving for Uy, Initial residual = 0.000398598, Final residual = 6.07409e-07, No Iterations 1
DILUPBiCGStab:  Solving for Uz, Initial residual = 0.000404271, Final residual = 5.88056e-07, No Iterations 1
DILUPBiCGStab:  Solving for h, Initial residual = 0.000762495, Final residual = 7.31391e-09, No Iterations 1
DICPCG:  Solving for p_rgh, Initial residual = 0.00038496, Final residual = 2.19433e-06, No Iterations 27
diagonal:  Solving for rho, Initial residual = 0, Final residual = 0, No Iterations 0
time step continuity errors : sum local = 1.32681e-07, global = 7.59203e-16, cumulative = 1.09028e-14
DICPCG:  Solving for p_rgh, Initial residual = 5.35103e-05, Final residual = 5.87656e-09, No Iterations 35
diagonal:  Solving for rho, Initial residual = 0, Final residual = 0, No Iterations 0
time step continuity errors : sum local = 1.83996e-09, global = 1.9738e-15, cumulative = 1.28766e-14
DILUPBiCGStab:  Solving for epsilon, Initial residual = 0.000152726, Final residual = 2.53616e-07, No Iterations 1
DILUPBiCGStab:  Solving for k, Initial residual = 0.000275262, Final residual = 9.37652e-09, No Iterations 1
ExecutionTime = 16.03 s  ClockTime = 16 s

Courant Number mean: 0.0811078 max: 0.633722
Time = 1990

diagonal:  Solving for rho, Initial residual = 0, Final residual = 0, No Iterations 0
PIMPLE: iteration 1
DILUPBiCGStab:  Solving for Ux, Initial residual = 0.000403203, Final residual = 5.92036e-07, No Iterations 1
DILUPBiCGStab:  Solving for Uy, Initial residual = 0.000396022, Final residual = 6.08188e-07, No Iterations 1
DILUPBiCGStab:  Solving for Uz, Initial residual = 0.000403182, Final residual = 5.91944e-07, No Iterations 1
DILUPBiCGStab:  Solving for h, Initial residual = 0.000763659, Final residual = 7.30795e-09, No Iterations 1
DICPCG:  Solving for p_rgh, Initial residual = 0.000389133, Final residual = 2.22082e-06, No Iterations 27
diagonal:  Solving for rho, Initial residual = 0, Final residual = 0, No Iterations 0
time step continuity errors : sum local = 1.33292e-07, global = -1.46091e-15, cumulative = 1.14157e-14
DICPCG:  Solving for p_rgh, Initial residual = 5.40252e-05, Final residual = 5.85926e-09, No Iterations 35
diagonal:  Solving for rho, Initial residual = 0, Final residual = 0, No Iterations 0
time step continuity errors : sum local = 1.84041e-09, global = -9.97706e-16, cumulative = 1.0418e-14
DILUPBiCGStab:  Solving for epsilon, Initial residual = 0.000153191, Final residual = 2.51309e-07, No Iterations 1
DILUPBiCGStab:  Solving for k, Initial residual = 0.000276649, Final residual = 9.42036e-09, No Iterations 1
ExecutionTime = 16.05 s  ClockTime = 16 s

Courant Number mean: 0.0811105 max: 0.633447
Time = 1992

diagonal:  Solving for rho, Initial residual = 0, Final residual = 0, No Iterations 0
PIMPLE: iteration 1
DILUPBiCGStab:  Solving for Ux, Initial residual = 0.000400905, Final residual = 5.94786e-07, No Iterations 1
DILUPBiCGStab:  Solving for Uy, Initial residual = 0.000393168, Final residual = 6.06318e-07, No Iterations 1
DILUPBiCGStab:  Solving for Uz, Initial residual = 0.000401009, Final residual = 5.94165e-07, No Iterations 1
DILUPBiCGStab:  Solving for h, Initial residual = 0.000764894, Final residual = 7.30402e-09, No Iterations 1
DICPCG:  Solving for p_rgh, Initial residual = 0.000389897, Final residual = 3.89541e-06, No Iterations 13
diagonal:  Solving for rho, Initial residual = 0, Final residual = 0, No Iterations 0
time step continuity errors : sum local = 1.18964e-07, global = 1.73875e-15, cumulative = 1.21568e-14
DICPCG:  Solving for p_rgh, Initial residual = 5.25902e-05, Final residual = 9.0496e-09, No Iterations 34
diagonal:  Solving for rho, Initial residual = 0, Final residual = 0, No Iterations 0
time step continuity errors : sum local = 1.74858e-09, global = 9.55352e-17, cumulative = 1.22523e-14
DILUPBiCGStab:  Solving for epsilon, Initial residual = 0.000153583, Final residual = 2.49018e-07, No Iterations 1
DILUPBiCGStab:  Solving for k, Initial residual = 0.000277954, Final residual = 9.45895e-09, No Iterations 1
ExecutionTime = 16.06 s  ClockTime = 16 s

Courant Number mean: 0.0811129 max: 0.633168
Time = 1994

diagonal:  Solving for rho, Initial residual = 0, Final residual = 0, No Iterations 0
PIMPLE: iteration 1
DILUPBiCGStab:  Solving for Ux, Initial residual = 0.000399436, Final residual = 5.98612e-07, No Iterations 1
DILUPBiCGStab:  Solving for Uy, Initial residual = 0.000390407, Final residual = 6.05758e-07, No Iterations 1
DILUPBiCGStab:  Solving for Uz, Initial residual = 0.000399494, Final residual = 5.98741e-07, No Iterations 1
DILUPBiCGStab:  Solving for h, Initial residual = 0.000766113, Final residual = 7.29514e-09, No Iterations 1
DICPCG:  Solving for p_rgh, Initial residual = 0.000390698, Final residual = 3.83687e-06, No Iterations 13
diagonal:  Solving for rho, Initial residual = 0, Final residual = 0, No Iterations 0
time step continuity errors : sum local = 1.18177e-07, global = -6.02006e-16, cumulative = 1.16503e-14
DICPCG:  Solving for p_rgh, Initial residual = 5.30593e-05, Final residual = 8.87132e-09, No Iterations 34
diagonal:  Solving for rho, Initial residual = 0, Final residual = 0, No Iterations 0
time step continuity errors : sum local = 1.78419e-09, global = -6.12834e-16, cumulative = 1.10375e-14
DILUPBiCGStab:  Solving for epsilon, Initial residual = 0.000153911, Final residual = 2.46663e-07, No Iterations 1
DILUPBiCGStab:  Solving for k, Initial residual = 0.000279178, Final residual = 9.49204e-09, No Iterations 1
ExecutionTime = 16.08 s  ClockTime = 16 s

Courant Number mean: 0.0811148 max: 0.632883
Time = 1996

diagonal:  Solving for rho, Initial residual = 0, Final residual = 0, No Iterations 0
PIMPLE: iteration 1
DILUPBiCGStab:  Solving for Ux, Initial residual = 0.000397385, Final residual = 6.01687e-07, No Iterations 1
DILUPBiCGStab:  Solving for Uy, Initial residual = 0.000387425, Final residual = 6.04209e-07, No Iterations 1
DILUPBiCGStab:  Solving for Uz, Initial residual = 0.000397347, Final residual = 6.01423e-07, No Iterations 1
DILUPBiCGStab:  Solving for h, Initial residual = 0.000767399, Final residual = 7.28494e-09, No Iterations 1
DICPCG:  Solving for p_rgh, Initial residual = 0.000391262, Final residual = 3.77908e-06, No Iterations 13
diagonal:  Solving for rho, Initial residual = 0, Final residual = 0, No Iterations 0
time step continuity errors : sum local = 1.17433e-07, global = -5.70145e-16, cumulative = 1.04673e-14
DICPCG:  Solving for p_rgh, Initial residual = 5.28403e-05, Final residual = 9.35703e-09, No Iterations 34
diagonal:  Solving for rho, Initial residual = 0, Final residual = 0, No Iterations 0
time step continuity errors : sum local = 1.67252e-09, global = 2.53571e-15, cumulative = 1.3003e-14
DILUPBiCGStab:  Solving for epsilon, Initial residual = 0.000154163, Final residual = 2.44199e-07, No Iterations 1
DILUPBiCGStab:  Solving for k, Initial residual = 0.000280332, Final residual = 9.51916e-09, No Iterations 1
ExecutionTime = 16.1 s  ClockTime = 16 s

Courant Number mean: 0.0811165 max: 0.632593
Time = 1998

diagonal:  Solving for rho, Initial residual = 0, Final residual = 0, No Iterations 0
PIMPLE: iteration 1
DILUPBiCGStab:  Solving for Ux, Initial residual = 0.000395948, Final residual = 6.06235e-07, No Iterations 1
DILUPBiCGStab:  Solving for Uy, Initial residual = 0.000384796, Final residual = 6.04479e-07, No Iterations 1
DILUPBiCGStab:  Solving for Uz, Initial residual = 0.000395978, Final residual = 6.06113e-07, No Iterations 1
DILUPBiCGStab:  Solving for h, Initial residual = 0.000768857, Final residual = 7.27313e-09, No Iterations 1
DICPCG:  Solving for p_rgh, Initial residual = 0.000392011, Final residual = 3.78161e-06, No Iterations 13
diagonal:  Solving for rho, Initial residual = 0, Final residual = 0, No Iterations 0
time step continuity errors : sum local = 1.17691e-07, global = -8.97858e-16, cumulative = 1.21052e-14
DICPCG:  Solving for p_rgh, Initial residual = 5.33113e-05, Final residual = 9.21176e-09, No Iterations 34
diagonal:  Solving for rho, Initial residual = 0, Final residual = 0, No Iterations 0
time step continuity errors : sum local = 1.72543e-09, global = -1.60215e-15, cumulative = 1.0503e-14
DILUPBiCGStab:  Solving for epsilon, Initial residual = 0.000154358, Final residual = 2.41628e-07, No Iterations 1
DILUPBiCGStab:  Solving for k, Initial residual = 0.000281402, Final residual = 9.54195e-09, No Iterations 1
ExecutionTime = 16.11 s  ClockTime = 16 s

Courant Number mean: 0.0811176 max: 0.632299
Time = 2000

diagonal:  Solving for rho, Initial residual = 0, Final residual = 0, No Iterations 0
PIMPLE: iteration 1
DILUPBiCGStab:  Solving for Ux, Initial residual = 0.000393597, Final residual = 6.08499e-07, No Iterations 1
DILUPBiCGStab:  Solving for Uy, Initial residual = 0.000382137, Final residual = 6.03764e-07, No Iterations 1
DILUPBiCGStab:  Solving for Uz, Initial residual = 0.000393623, Final residual = 6.08134e-07, No Iterations 1
DILUPBiCGStab:  Solving for h, Initial residual = 0.000770751, Final residual = 7.2613e-09, No Iterations 1
DICPCG:  Solving for p_rgh, Initial residual = 0.000391768, Final residual = 3.80619e-06, No Iterations 13
diagonal:  Solving for rho, Initial residual = 0, Final residual = 0, No Iterations 0
time step continuity errors : sum local = 1.18358e-07, global = -3.42576e-15, cumulative = 7.07727e-15
DICPCG:  Solving for p_rgh, Initial residual = 5.32067e-05, Final residual = 9.41936e-09, No Iterations 34
diagonal:  Solving for rho, Initial residual = 0, Final residual = 0, No Iterations 0
time step continuity errors : sum local = 1.72453e-09, global = 2.07777e-15, cumulative = 9.15504e-15
DILUPBiCGStab:  Solving for epsilon, Initial residual = 0.000154485, Final residual = 2.39015e-07, No Iterations 1
DILUPBiCGStab:  Solving for k, Initial residual = 0.000282381, Final residual = 9.55883e-09, No Iterations 1
ExecutionTime = 16.14 s  ClockTime = 16 s

End

