/*---------------------------------------------------------------------------*\
| =========                 |                                                 |
| \\      /  F ield         | OpenFOAM: The Open Source CFD Toolbox           |
|  \\    /   O peration     | Version:  v1906                                 |
|   \\  /    A nd           | Web:      www.OpenFOAM.com                      |
|    \\/     M anipulation  |                                                 |
\*---------------------------------------------------------------------------*/
Build  : v1906 OPENFOAM=1906
Arch   : "LSB;label=32;scalar=64"
Exec   : laplacianFoam
Date   : Aug 22 2019
Time   : 13:04:29
Host   : DESKTOP-9S60IA4
PID    : 2996
I/O    : uncollated
Case   : /home/theodore_ong/GitHub_software/OpenFoam_heatTrf_YouTube/laplacianSnappyFoam_pipeCase
nProcs : 1
trapFpe: Floating point exception trapping enabled (FOAM_SIGFPE).
fileModificationChecking : Monitoring run-time modified files using timeStampMaster (fileModificationSkew 10)
allowSystemOperations : Allowing user-supplied system call operations

// * * * * * * * * * * * * * * * * * * * * * * * * * * * * * * * * * * * * * //
Create time

Create mesh for time = 0


SIMPLE: no convergence criteria found. Calculations will run for 100.5 steps.

Reading field T

Reading transportProperties

Reading diffusivity DT

No finite volume options present

Calculating temperature distribution

Time = 0.025

DICPCG:  Solving for T, Initial residual = 1, Final residual = 2.06736e-08, No Iterations 2
DICPCG:  Solving for T, Initial residual = 8.84077e-06, Final residual = 1.38537e-09, No Iterations 1
DICPCG:  Solving for T, Initial residual = 2.52109e-08, Final residual = 2.52109e-08, No Iterations 0
ExecutionTime = 1.14 s  ClockTime = 3 s

Time = 0.05

DICPCG:  Solving for T, Initial residual = 0.0069511, Final residual = 8.38519e-07, No Iterations 1
DICPCG:  Solving for T, Initial residual = 4.16151e-06, Final residual = 6.26569e-10, No Iterations 1
DICPCG:  Solving for T, Initial residual = 1.16143e-08, Final residual = 1.16143e-08, No Iterations 0
ExecutionTime = 1.37 s  ClockTime = 3 s

Time = 0.075

DICPCG:  Solving for T, Initial residual = 0.00349901, Final residual = 4.2045e-07, No Iterations 1
DICPCG:  Solving for T, Initial residual = 2.64852e-06, Final residual = 3.87337e-10, No Iterations 1
DICPCG:  Solving for T, Initial residual = 7.21616e-09, Final residual = 7.21616e-09, No Iterations 0
ExecutionTime = 1.57 s  ClockTime = 3 s

Time = 0.1

DICPCG:  Solving for T, Initial residual = 0.00234382, Final residual = 2.80622e-07, No Iterations 1
DICPCG:  Solving for T, Initial residual = 1.9017e-06, Final residual = 2.70172e-10, No Iterations 1
DICPCG:  Solving for T, Initial residual = 5.05919e-09, Final residual = 5.05919e-09, No Iterations 0
ExecutionTime = 1.78 s  ClockTime = 3 s

Time = 0.125

DICPCG:  Solving for T, Initial residual = 0.00176683, Final residual = 2.10691e-07, No Iterations 1
DICPCG:  Solving for T, Initial residual = 1.46053e-06, Final residual = 2.01644e-10, No Iterations 1
DICPCG:  Solving for T, Initial residual = 3.79479e-09, Final residual = 3.79479e-09, No Iterations 0
ExecutionTime = 2.01 s  ClockTime = 4 s

Time = 0.15

DICPCG:  Solving for T, Initial residual = 0.00142024, Final residual = 1.68711e-07, No Iterations 1
DICPCG:  Solving for T, Initial residual = 1.17146e-06, Final residual = 1.57252e-10, No Iterations 1
DICPCG:  Solving for T, Initial residual = 2.97398e-09, Final residual = 2.97398e-09, No Iterations 0
ExecutionTime = 2.23 s  ClockTime = 4 s

Time = 0.175

DICPCG:  Solving for T, Initial residual = 0.00118915, Final residual = 1.40706e-07, No Iterations 1
DICPCG:  Solving for T, Initial residual = 9.68935e-07, Final residual = 9.68935e-07, No Iterations 0
DICPCG:  Solving for T, Initial residual = 9.68935e-07, Final residual = 9.68935e-07, No Iterations 0
ExecutionTime = 2.43 s  ClockTime = 4 s

Time = 0.2

DICPCG:  Solving for T, Initial residual = 0.00102396, Final residual = 1.20661e-07, No Iterations 1
DICPCG:  Solving for T, Initial residual = 8.20251e-07, Final residual = 8.20251e-07, No Iterations 0
DICPCG:  Solving for T, Initial residual = 8.20251e-07, Final residual = 8.20251e-07, No Iterations 0
ExecutionTime = 2.65 s  ClockTime = 4 s

Time = 0.225

DICPCG:  Solving for T, Initial residual = 0.000899927, Final residual = 1.05596e-07, No Iterations 1
DICPCG:  Solving for T, Initial residual = 7.07057e-07, Final residual = 7.07057e-07, No Iterations 0
DICPCG:  Solving for T, Initial residual = 7.07057e-07, Final residual = 7.07057e-07, No Iterations 0
ExecutionTime = 2.86 s  ClockTime = 4 s

Time = 0.25

DICPCG:  Solving for T, Initial residual = 0.00080334, Final residual = 9.38667e-08, No Iterations 1
DICPCG:  Solving for T, Initial residual = 6.18521e-07, Final residual = 6.18521e-07, No Iterations 0
DICPCG:  Solving for T, Initial residual = 6.18521e-07, Final residual = 6.18521e-07, No Iterations 0
ExecutionTime = 3.05 s  ClockTime = 5 s

Time = 0.275

DICPCG:  Solving for T, Initial residual = 0.000725973, Final residual = 8.45467e-08, No Iterations 1
DICPCG:  Solving for T, Initial residual = 5.4809e-07, Final residual = 5.4809e-07, No Iterations 0
DICPCG:  Solving for T, Initial residual = 5.4809e-07, Final residual = 5.4809e-07, No Iterations 0
ExecutionTime = 3.27 s  ClockTime = 5 s

Time = 0.3

DICPCG:  Solving for T, Initial residual = 0.000662592, Final residual = 7.69428e-08, No Iterations 1
DICPCG:  Solving for T, Initial residual = 4.90555e-07, Final residual = 4.90555e-07, No Iterations 0
DICPCG:  Solving for T, Initial residual = 4.90555e-07, Final residual = 4.90555e-07, No Iterations 0
ExecutionTime = 3.48 s  ClockTime = 5 s

Time = 0.325

DICPCG:  Solving for T, Initial residual = 0.000609719, Final residual = 7.06316e-08, No Iterations 1
DICPCG:  Solving for T, Initial residual = 4.42763e-07, Final residual = 4.42763e-07, No Iterations 0
DICPCG:  Solving for T, Initial residual = 4.42763e-07, Final residual = 4.42763e-07, No Iterations 0
ExecutionTime = 3.69 s  ClockTime = 5 s

Time = 0.35

DICPCG:  Solving for T, Initial residual = 0.000565077, Final residual = 6.52993e-08, No Iterations 1
DICPCG:  Solving for T, Initial residual = 4.02513e-07, Final residual = 4.02513e-07, No Iterations 0
DICPCG:  Solving for T, Initial residual = 4.02513e-07, Final residual = 4.02513e-07, No Iterations 0
ExecutionTime = 3.9 s  ClockTime = 5 s

Time = 0.375

DICPCG:  Solving for T, Initial residual = 0.000526773, Final residual = 6.07418e-08, No Iterations 1
DICPCG:  Solving for T, Initial residual = 3.68247e-07, Final residual = 3.68247e-07, No Iterations 0
DICPCG:  Solving for T, Initial residual = 3.68247e-07, Final residual = 3.68247e-07, No Iterations 0
ExecutionTime = 4.11 s  ClockTime = 6 s

Time = 0.4

DICPCG:  Solving for T, Initial residual = 0.000493533, Final residual = 5.67845e-08, No Iterations 1
DICPCG:  Solving for T, Initial residual = 3.38796e-07, Final residual = 3.38796e-07, No Iterations 0
DICPCG:  Solving for T, Initial residual = 3.38796e-07, Final residual = 3.38796e-07, No Iterations 0
ExecutionTime = 4.38 s  ClockTime = 6 s

Time = 0.425

DICPCG:  Solving for T, Initial residual = 0.000464408, Final residual = 5.33186e-08, No Iterations 1
DICPCG:  Solving for T, Initial residual = 3.13242e-07, Final residual = 3.13242e-07, No Iterations 0
DICPCG:  Solving for T, Initial residual = 3.13242e-07, Final residual = 3.13242e-07, No Iterations 0
ExecutionTime = 4.58 s  ClockTime = 6 s

Time = 0.45

DICPCG:  Solving for T, Initial residual = 0.000438676, Final residual = 5.02651e-08, No Iterations 1
DICPCG:  Solving for T, Initial residual = 2.90916e-07, Final residual = 2.90916e-07, No Iterations 0
DICPCG:  Solving for T, Initial residual = 2.90916e-07, Final residual = 2.90916e-07, No Iterations 0
ExecutionTime = 4.79 s  ClockTime = 6 s

Time = 0.475

DICPCG:  Solving for T, Initial residual = 0.000415772, Final residual = 4.75505e-08, No Iterations 1
DICPCG:  Solving for T, Initial residual = 2.71252e-07, Final residual = 2.71252e-07, No Iterations 0
DICPCG:  Solving for T, Initial residual = 2.71252e-07, Final residual = 2.71252e-07, No Iterations 0
ExecutionTime = 4.98 s  ClockTime = 7 s

Time = 0.5

DICPCG:  Solving for T, Initial residual = 0.000395252, Final residual = 4.51239e-08, No Iterations 1
DICPCG:  Solving for T, Initial residual = 2.53807e-07, Final residual = 2.53807e-07, No Iterations 0
DICPCG:  Solving for T, Initial residual = 2.53807e-07, Final residual = 2.53807e-07, No Iterations 0
ExecutionTime = 5.21 s  ClockTime = 7 s

Time = 0.525

DICPCG:  Solving for T, Initial residual = 0.000376787, Final residual = 4.29363e-08, No Iterations 1
DICPCG:  Solving for T, Initial residual = 2.38234e-07, Final residual = 2.38234e-07, No Iterations 0
DICPCG:  Solving for T, Initial residual = 2.38234e-07, Final residual = 2.38234e-07, No Iterations 0
ExecutionTime = 5.42 s  ClockTime = 7 s

Time = 0.55

DICPCG:  Solving for T, Initial residual = 0.000360063, Final residual = 4.09621e-08, No Iterations 1
DICPCG:  Solving for T, Initial residual = 2.24266e-07, Final residual = 2.24266e-07, No Iterations 0
DICPCG:  Solving for T, Initial residual = 2.24266e-07, Final residual = 2.24266e-07, No Iterations 0
ExecutionTime = 5.62 s  ClockTime = 7 s

Time = 0.575

DICPCG:  Solving for T, Initial residual = 0.00034484, Final residual = 3.91662e-08, No Iterations 1
DICPCG:  Solving for T, Initial residual = 2.11687e-07, Final residual = 2.11687e-07, No Iterations 0
DICPCG:  Solving for T, Initial residual = 2.11687e-07, Final residual = 2.11687e-07, No Iterations 0
ExecutionTime = 5.9 s  ClockTime = 7 s

Time = 0.6

DICPCG:  Solving for T, Initial residual = 0.000330923, Final residual = 3.75285e-08, No Iterations 1
DICPCG:  Solving for T, Initial residual = 2.0029e-07, Final residual = 2.0029e-07, No Iterations 0
DICPCG:  Solving for T, Initial residual = 2.0029e-07, Final residual = 2.0029e-07, No Iterations 0
ExecutionTime = 6.09 s  ClockTime = 8 s

Time = 0.625

DICPCG:  Solving for T, Initial residual = 0.00031815, Final residual = 3.60244e-08, No Iterations 1
DICPCG:  Solving for T, Initial residual = 1.8993e-07, Final residual = 1.8993e-07, No Iterations 0
DICPCG:  Solving for T, Initial residual = 1.8993e-07, Final residual = 1.8993e-07, No Iterations 0
ExecutionTime = 6.31 s  ClockTime = 8 s

Time = 0.65

DICPCG:  Solving for T, Initial residual = 0.000306385, Final residual = 3.46386e-08, No Iterations 1
DICPCG:  Solving for T, Initial residual = 1.80486e-07, Final residual = 1.80486e-07, No Iterations 0
DICPCG:  Solving for T, Initial residual = 1.80486e-07, Final residual = 1.80486e-07, No Iterations 0
ExecutionTime = 6.51 s  ClockTime = 8 s

Time = 0.675

DICPCG:  Solving for T, Initial residual = 0.000295511, Final residual = 3.33577e-08, No Iterations 1
DICPCG:  Solving for T, Initial residual = 1.71832e-07, Final residual = 1.71832e-07, No Iterations 0
DICPCG:  Solving for T, Initial residual = 1.71832e-07, Final residual = 1.71832e-07, No Iterations 0
ExecutionTime = 6.75 s  ClockTime = 8 s

Time = 0.7

DICPCG:  Solving for T, Initial residual = 0.000285432, Final residual = 3.21687e-08, No Iterations 1
DICPCG:  Solving for T, Initial residual = 1.63874e-07, Final residual = 1.63874e-07, No Iterations 0
DICPCG:  Solving for T, Initial residual = 1.63874e-07, Final residual = 1.63874e-07, No Iterations 0
ExecutionTime = 6.94 s  ClockTime = 8 s

Time = 0.725

DICPCG:  Solving for T, Initial residual = 0.000276062, Final residual = 3.10653e-08, No Iterations 1
DICPCG:  Solving for T, Initial residual = 1.56537e-07, Final residual = 1.56537e-07, No Iterations 0
DICPCG:  Solving for T, Initial residual = 1.56537e-07, Final residual = 1.56537e-07, No Iterations 0
ExecutionTime = 7.25 s  ClockTime = 9 s

Time = 0.75

DICPCG:  Solving for T, Initial residual = 0.000267329, Final residual = 3.00361e-08, No Iterations 1
DICPCG:  Solving for T, Initial residual = 1.49749e-07, Final residual = 1.49749e-07, No Iterations 0
DICPCG:  Solving for T, Initial residual = 1.49749e-07, Final residual = 1.49749e-07, No Iterations 0
ExecutionTime = 7.56 s  ClockTime = 9 s

Time = 0.775

DICPCG:  Solving for T, Initial residual = 0.000259169, Final residual = 2.90741e-08, No Iterations 1
DICPCG:  Solving for T, Initial residual = 1.43464e-07, Final residual = 1.43464e-07, No Iterations 0
DICPCG:  Solving for T, Initial residual = 1.43464e-07, Final residual = 1.43464e-07, No Iterations 0
ExecutionTime = 7.78 s  ClockTime = 9 s

Time = 0.8

DICPCG:  Solving for T, Initial residual = 0.000251529, Final residual = 2.81737e-08, No Iterations 1
DICPCG:  Solving for T, Initial residual = 1.3762e-07, Final residual = 1.3762e-07, No Iterations 0
DICPCG:  Solving for T, Initial residual = 1.3762e-07, Final residual = 1.3762e-07, No Iterations 0
ExecutionTime = 7.99 s  ClockTime = 10 s

Time = 0.825

DICPCG:  Solving for T, Initial residual = 0.000244358, Final residual = 2.7331e-08, No Iterations 1
DICPCG:  Solving for T, Initial residual = 1.32171e-07, Final residual = 1.32171e-07, No Iterations 0
DICPCG:  Solving for T, Initial residual = 1.32171e-07, Final residual = 1.32171e-07, No Iterations 0
ExecutionTime = 8.21 s  ClockTime = 10 s

Time = 0.85

DICPCG:  Solving for T, Initial residual = 0.000237616, Final residual = 2.6539e-08, No Iterations 1
DICPCG:  Solving for T, Initial residual = 1.27079e-07, Final residual = 1.27079e-07, No Iterations 0
DICPCG:  Solving for T, Initial residual = 1.27079e-07, Final residual = 1.27079e-07, No Iterations 0
ExecutionTime = 8.41 s  ClockTime = 10 s

Time = 0.875

DICPCG:  Solving for T, Initial residual = 0.000231265, Final residual = 2.57914e-08, No Iterations 1
DICPCG:  Solving for T, Initial residual = 1.22313e-07, Final residual = 1.22313e-07, No Iterations 0
DICPCG:  Solving for T, Initial residual = 1.22313e-07, Final residual = 1.22313e-07, No Iterations 0
ExecutionTime = 8.69 s  ClockTime = 10 s

Time = 0.9

DICPCG:  Solving for T, Initial residual = 0.000225271, Final residual = 2.50845e-08, No Iterations 1
DICPCG:  Solving for T, Initial residual = 1.17844e-07, Final residual = 1.17844e-07, No Iterations 0
DICPCG:  Solving for T, Initial residual = 1.17844e-07, Final residual = 1.17844e-07, No Iterations 0
ExecutionTime = 9.01 s  ClockTime = 11 s

Time = 0.925

DICPCG:  Solving for T, Initial residual = 0.000219605, Final residual = 2.44168e-08, No Iterations 1
DICPCG:  Solving for T, Initial residual = 1.13644e-07, Final residual = 1.13644e-07, No Iterations 0
DICPCG:  Solving for T, Initial residual = 1.13644e-07, Final residual = 1.13644e-07, No Iterations 0
ExecutionTime = 9.22 s  ClockTime = 11 s

Time = 0.95

DICPCG:  Solving for T, Initial residual = 0.000214241, Final residual = 2.37834e-08, No Iterations 1
DICPCG:  Solving for T, Initial residual = 1.09697e-07, Final residual = 1.09697e-07, No Iterations 0
DICPCG:  Solving for T, Initial residual = 1.09697e-07, Final residual = 1.09697e-07, No Iterations 0
ExecutionTime = 9.41 s  ClockTime = 11 s

Time = 0.975

DICPCG:  Solving for T, Initial residual = 0.000209155, Final residual = 2.3183e-08, No Iterations 1
DICPCG:  Solving for T, Initial residual = 1.05976e-07, Final residual = 1.05976e-07, No Iterations 0
DICPCG:  Solving for T, Initial residual = 1.05976e-07, Final residual = 1.05976e-07, No Iterations 0
ExecutionTime = 9.69 s  ClockTime = 11 s

Time = 1

DICPCG:  Solving for T, Initial residual = 0.000204325, Final residual = 2.26128e-08, No Iterations 1
DICPCG:  Solving for T, Initial residual = 1.02463e-07, Final residual = 1.02463e-07, No Iterations 0
DICPCG:  Solving for T, Initial residual = 1.02463e-07, Final residual = 1.02463e-07, No Iterations 0
ExecutionTime = 9.96 s  ClockTime = 12 s

Time = 1.025

DICPCG:  Solving for T, Initial residual = 0.000199734, Final residual = 2.20698e-08, No Iterations 1
DICPCG:  Solving for T, Initial residual = 9.91423e-08, Final residual = 9.91423e-08, No Iterations 0
DICPCG:  Solving for T, Initial residual = 9.91423e-08, Final residual = 9.91423e-08, No Iterations 0
ExecutionTime = 10.19 s  ClockTime = 12 s

Time = 1.05

DICPCG:  Solving for T, Initial residual = 0.000195363, Final residual = 2.1554e-08, No Iterations 1
DICPCG:  Solving for T, Initial residual = 9.60014e-08, Final residual = 9.60014e-08, No Iterations 0
DICPCG:  Solving for T, Initial residual = 9.60014e-08, Final residual = 9.60014e-08, No Iterations 0
ExecutionTime = 10.41 s  ClockTime = 12 s

Time = 1.075

DICPCG:  Solving for T, Initial residual = 0.000191198, Final residual = 2.10612e-08, No Iterations 1
DICPCG:  Solving for T, Initial residual = 9.30254e-08, Final residual = 9.30254e-08, No Iterations 0
DICPCG:  Solving for T, Initial residual = 9.30254e-08, Final residual = 9.30254e-08, No Iterations 0
ExecutionTime = 10.72 s  ClockTime = 12 s

Time = 1.1

DICPCG:  Solving for T, Initial residual = 0.000187223, Final residual = 2.05888e-08, No Iterations 1
DICPCG:  Solving for T, Initial residual = 9.0203e-08, Final residual = 9.0203e-08, No Iterations 0
DICPCG:  Solving for T, Initial residual = 9.0203e-08, Final residual = 9.0203e-08, No Iterations 0
ExecutionTime = 10.97 s  ClockTime = 13 s

Time = 1.125

DICPCG:  Solving for T, Initial residual = 0.000183426, Final residual = 2.01353e-08, No Iterations 1
DICPCG:  Solving for T, Initial residual = 8.7525e-08, Final residual = 8.7525e-08, No Iterations 0
DICPCG:  Solving for T, Initial residual = 8.7525e-08, Final residual = 8.7525e-08, No Iterations 0
ExecutionTime = 11.29 s  ClockTime = 13 s

Time = 1.15

DICPCG:  Solving for T, Initial residual = 0.000179795, Final residual = 1.97011e-08, No Iterations 1
DICPCG:  Solving for T, Initial residual = 8.49785e-08, Final residual = 8.49785e-08, No Iterations 0
DICPCG:  Solving for T, Initial residual = 8.49785e-08, Final residual = 8.49785e-08, No Iterations 0
ExecutionTime = 11.48 s  ClockTime = 13 s

Time = 1.175

DICPCG:  Solving for T, Initial residual = 0.00017632, Final residual = 1.92855e-08, No Iterations 1
DICPCG:  Solving for T, Initial residual = 8.25554e-08, Final residual = 8.25554e-08, No Iterations 0
DICPCG:  Solving for T, Initial residual = 8.25554e-08, Final residual = 8.25554e-08, No Iterations 0
ExecutionTime = 11.74 s  ClockTime = 13 s

Time = 1.2

DICPCG:  Solving for T, Initial residual = 0.000172991, Final residual = 1.88873e-08, No Iterations 1
DICPCG:  Solving for T, Initial residual = 8.0249e-08, Final residual = 8.0249e-08, No Iterations 0
DICPCG:  Solving for T, Initial residual = 8.0249e-08, Final residual = 8.0249e-08, No Iterations 0
ExecutionTime = 11.91 s  ClockTime = 14 s

Time = 1.225

DICPCG:  Solving for T, Initial residual = 0.000169799, Final residual = 1.85051e-08, No Iterations 1
DICPCG:  Solving for T, Initial residual = 7.80508e-08, Final residual = 7.80508e-08, No Iterations 0
DICPCG:  Solving for T, Initial residual = 7.80508e-08, Final residual = 7.80508e-08, No Iterations 0
ExecutionTime = 12.15 s  ClockTime = 14 s

Time = 1.25

DICPCG:  Solving for T, Initial residual = 0.000166734, Final residual = 1.81367e-08, No Iterations 1
DICPCG:  Solving for T, Initial residual = 7.5956e-08, Final residual = 7.5956e-08, No Iterations 0
DICPCG:  Solving for T, Initial residual = 7.5956e-08, Final residual = 7.5956e-08, No Iterations 0
ExecutionTime = 12.33 s  ClockTime = 14 s

Time = 1.275

DICPCG:  Solving for T, Initial residual = 0.000163791, Final residual = 1.7782e-08, No Iterations 1
DICPCG:  Solving for T, Initial residual = 7.39551e-08, Final residual = 7.39551e-08, No Iterations 0
DICPCG:  Solving for T, Initial residual = 7.39551e-08, Final residual = 7.39551e-08, No Iterations 0
ExecutionTime = 12.55 s  ClockTime = 14 s

Time = 1.3

DICPCG:  Solving for T, Initial residual = 0.000160962, Final residual = 1.74398e-08, No Iterations 1
DICPCG:  Solving for T, Initial residual = 7.20406e-08, Final residual = 7.20406e-08, No Iterations 0
DICPCG:  Solving for T, Initial residual = 7.20406e-08, Final residual = 7.20406e-08, No Iterations 0
ExecutionTime = 12.75 s  ClockTime = 14 s

Time = 1.325

DICPCG:  Solving for T, Initial residual = 0.00015824, Final residual = 1.71098e-08, No Iterations 1
DICPCG:  Solving for T, Initial residual = 7.0207e-08, Final residual = 7.0207e-08, No Iterations 0
DICPCG:  Solving for T, Initial residual = 7.0207e-08, Final residual = 7.0207e-08, No Iterations 0
ExecutionTime = 12.96 s  ClockTime = 15 s

Time = 1.35

DICPCG:  Solving for T, Initial residual = 0.000155619, Final residual = 1.67906e-08, No Iterations 1
DICPCG:  Solving for T, Initial residual = 6.84503e-08, Final residual = 6.84503e-08, No Iterations 0
DICPCG:  Solving for T, Initial residual = 6.84503e-08, Final residual = 6.84503e-08, No Iterations 0
ExecutionTime = 13.17 s  ClockTime = 15 s

Time = 1.375

DICPCG:  Solving for T, Initial residual = 0.000153093, Final residual = 1.6482e-08, No Iterations 1
DICPCG:  Solving for T, Initial residual = 6.67654e-08, Final residual = 6.67654e-08, No Iterations 0
DICPCG:  Solving for T, Initial residual = 6.67654e-08, Final residual = 6.67654e-08, No Iterations 0
ExecutionTime = 13.36 s  ClockTime = 15 s

Time = 1.4

DICPCG:  Solving for T, Initial residual = 0.000150659, Final residual = 1.61845e-08, No Iterations 1
DICPCG:  Solving for T, Initial residual = 6.51488e-08, Final residual = 6.51488e-08, No Iterations 0
DICPCG:  Solving for T, Initial residual = 6.51488e-08, Final residual = 6.51488e-08, No Iterations 0
ExecutionTime = 13.55 s  ClockTime = 15 s

Time = 1.425

DICPCG:  Solving for T, Initial residual = 0.000148311, Final residual = 1.58962e-08, No Iterations 1
DICPCG:  Solving for T, Initial residual = 6.35988e-08, Final residual = 6.35988e-08, No Iterations 0
DICPCG:  Solving for T, Initial residual = 6.35988e-08, Final residual = 6.35988e-08, No Iterations 0
ExecutionTime = 13.77 s  ClockTime = 15 s

Time = 1.45

DICPCG:  Solving for T, Initial residual = 0.000146044, Final residual = 1.56166e-08, No Iterations 1
DICPCG:  Solving for T, Initial residual = 6.21094e-08, Final residual = 6.21094e-08, No Iterations 0
DICPCG:  Solving for T, Initial residual = 6.21094e-08, Final residual = 6.21094e-08, No Iterations 0
ExecutionTime = 13.96 s  ClockTime = 16 s

Time = 1.475

DICPCG:  Solving for T, Initial residual = 0.000143854, Final residual = 1.53454e-08, No Iterations 1
DICPCG:  Solving for T, Initial residual = 6.06788e-08, Final residual = 6.06788e-08, No Iterations 0
DICPCG:  Solving for T, Initial residual = 6.06788e-08, Final residual = 6.06788e-08, No Iterations 0
ExecutionTime = 14.17 s  ClockTime = 16 s

Time = 1.5

DICPCG:  Solving for T, Initial residual = 0.000141737, Final residual = 1.50821e-08, No Iterations 1
DICPCG:  Solving for T, Initial residual = 5.93043e-08, Final residual = 5.93043e-08, No Iterations 0
DICPCG:  Solving for T, Initial residual = 5.93043e-08, Final residual = 5.93043e-08, No Iterations 0
ExecutionTime = 14.38 s  ClockTime = 16 s

Time = 1.525

DICPCG:  Solving for T, Initial residual = 0.000139689, Final residual = 1.48266e-08, No Iterations 1
DICPCG:  Solving for T, Initial residual = 5.79815e-08, Final residual = 5.79815e-08, No Iterations 0
DICPCG:  Solving for T, Initial residual = 5.79815e-08, Final residual = 5.79815e-08, No Iterations 0
ExecutionTime = 14.58 s  ClockTime = 16 s

Time = 1.55

DICPCG:  Solving for T, Initial residual = 0.000137707, Final residual = 1.45787e-08, No Iterations 1
DICPCG:  Solving for T, Initial residual = 5.67073e-08, Final residual = 5.67073e-08, No Iterations 0
DICPCG:  Solving for T, Initial residual = 5.67073e-08, Final residual = 5.67073e-08, No Iterations 0
ExecutionTime = 14.87 s  ClockTime = 16 s

Time = 1.575

DICPCG:  Solving for T, Initial residual = 0.000135788, Final residual = 1.4338e-08, No Iterations 1
DICPCG:  Solving for T, Initial residual = 5.54802e-08, Final residual = 5.54802e-08, No Iterations 0
DICPCG:  Solving for T, Initial residual = 5.54802e-08, Final residual = 5.54802e-08, No Iterations 0
ExecutionTime = 15.18 s  ClockTime = 17 s

Time = 1.6

DICPCG:  Solving for T, Initial residual = 0.000133929, Final residual = 1.41039e-08, No Iterations 1
DICPCG:  Solving for T, Initial residual = 5.42983e-08, Final residual = 5.42983e-08, No Iterations 0
DICPCG:  Solving for T, Initial residual = 5.42983e-08, Final residual = 5.42983e-08, No Iterations 0
ExecutionTime = 15.37 s  ClockTime = 17 s

Time = 1.625

DICPCG:  Solving for T, Initial residual = 0.000132128, Final residual = 1.3877e-08, No Iterations 1
DICPCG:  Solving for T, Initial residual = 5.31589e-08, Final residual = 5.31589e-08, No Iterations 0
DICPCG:  Solving for T, Initial residual = 5.31589e-08, Final residual = 5.31589e-08, No Iterations 0
ExecutionTime = 15.61 s  ClockTime = 17 s

Time = 1.65

DICPCG:  Solving for T, Initial residual = 0.00013038, Final residual = 1.3657e-08, No Iterations 1
DICPCG:  Solving for T, Initial residual = 5.20588e-08, Final residual = 5.20588e-08, No Iterations 0
DICPCG:  Solving for T, Initial residual = 5.20588e-08, Final residual = 5.20588e-08, No Iterations 0
ExecutionTime = 15.78 s  ClockTime = 17 s

Time = 1.675

DICPCG:  Solving for T, Initial residual = 0.000128685, Final residual = 1.34428e-08, No Iterations 1
DICPCG:  Solving for T, Initial residual = 5.0996e-08, Final residual = 5.0996e-08, No Iterations 0
DICPCG:  Solving for T, Initial residual = 5.0996e-08, Final residual = 5.0996e-08, No Iterations 0
ExecutionTime = 15.97 s  ClockTime = 18 s

Time = 1.7

DICPCG:  Solving for T, Initial residual = 0.000127039, Final residual = 1.32343e-08, No Iterations 1
DICPCG:  Solving for T, Initial residual = 4.99705e-08, Final residual = 4.99705e-08, No Iterations 0
DICPCG:  Solving for T, Initial residual = 4.99705e-08, Final residual = 4.99705e-08, No Iterations 0
ExecutionTime = 16.27 s  ClockTime = 18 s

Time = 1.725

DICPCG:  Solving for T, Initial residual = 0.00012544, Final residual = 1.30316e-08, No Iterations 1
DICPCG:  Solving for T, Initial residual = 4.89801e-08, Final residual = 4.89801e-08, No Iterations 0
DICPCG:  Solving for T, Initial residual = 4.89801e-08, Final residual = 4.89801e-08, No Iterations 0
ExecutionTime = 16.58 s  ClockTime = 18 s

Time = 1.75

DICPCG:  Solving for T, Initial residual = 0.000123887, Final residual = 1.28343e-08, No Iterations 1
DICPCG:  Solving for T, Initial residual = 4.80232e-08, Final residual = 4.80232e-08, No Iterations 0
DICPCG:  Solving for T, Initial residual = 4.80232e-08, Final residual = 4.80232e-08, No Iterations 0
ExecutionTime = 16.78 s  ClockTime = 18 s

Time = 1.775

DICPCG:  Solving for T, Initial residual = 0.000122377, Final residual = 1.26425e-08, No Iterations 1
DICPCG:  Solving for T, Initial residual = 4.71013e-08, Final residual = 4.71013e-08, No Iterations 0
DICPCG:  Solving for T, Initial residual = 4.71013e-08, Final residual = 4.71013e-08, No Iterations 0
ExecutionTime = 16.99 s  ClockTime = 19 s

Time = 1.8

DICPCG:  Solving for T, Initial residual = 0.000120909, Final residual = 1.24562e-08, No Iterations 1
DICPCG:  Solving for T, Initial residual = 4.62089e-08, Final residual = 4.62089e-08, No Iterations 0
DICPCG:  Solving for T, Initial residual = 4.62089e-08, Final residual = 4.62089e-08, No Iterations 0
ExecutionTime = 17.2 s  ClockTime = 19 s

Time = 1.825

DICPCG:  Solving for T, Initial residual = 0.000119481, Final residual = 1.22753e-08, No Iterations 1
DICPCG:  Solving for T, Initial residual = 4.53451e-08, Final residual = 4.53451e-08, No Iterations 0
DICPCG:  Solving for T, Initial residual = 4.53451e-08, Final residual = 4.53451e-08, No Iterations 0
ExecutionTime = 17.4 s  ClockTime = 19 s

Time = 1.85

DICPCG:  Solving for T, Initial residual = 0.000118091, Final residual = 1.20991e-08, No Iterations 1
DICPCG:  Solving for T, Initial residual = 4.45083e-08, Final residual = 4.45083e-08, No Iterations 0
DICPCG:  Solving for T, Initial residual = 4.45083e-08, Final residual = 4.45083e-08, No Iterations 0
ExecutionTime = 17.71 s  ClockTime = 19 s

Time = 1.875

DICPCG:  Solving for T, Initial residual = 0.000116737, Final residual = 1.19273e-08, No Iterations 1
DICPCG:  Solving for T, Initial residual = 4.36986e-08, Final residual = 4.36986e-08, No Iterations 0
DICPCG:  Solving for T, Initial residual = 4.36986e-08, Final residual = 4.36986e-08, No Iterations 0
ExecutionTime = 18 s  ClockTime = 20 s

Time = 1.9

DICPCG:  Solving for T, Initial residual = 0.000115419, Final residual = 1.176e-08, No Iterations 1
DICPCG:  Solving for T, Initial residual = 4.29134e-08, Final residual = 4.29134e-08, No Iterations 0
DICPCG:  Solving for T, Initial residual = 4.29134e-08, Final residual = 4.29134e-08, No Iterations 0
ExecutionTime = 18.22 s  ClockTime = 20 s

Time = 1.925

DICPCG:  Solving for T, Initial residual = 0.000114134, Final residual = 1.1597e-08, No Iterations 1
DICPCG:  Solving for T, Initial residual = 4.21514e-08, Final residual = 4.21514e-08, No Iterations 0
DICPCG:  Solving for T, Initial residual = 4.21514e-08, Final residual = 4.21514e-08, No Iterations 0
ExecutionTime = 18.41 s  ClockTime = 20 s

Time = 1.95

DICPCG:  Solving for T, Initial residual = 0.000112882, Final residual = 1.14378e-08, No Iterations 1
DICPCG:  Solving for T, Initial residual = 4.14118e-08, Final residual = 4.14118e-08, No Iterations 0
DICPCG:  Solving for T, Initial residual = 4.14118e-08, Final residual = 4.14118e-08, No Iterations 0
ExecutionTime = 18.63 s  ClockTime = 20 s

Time = 1.975

DICPCG:  Solving for T, Initial residual = 0.000111661, Final residual = 1.12823e-08, No Iterations 1
DICPCG:  Solving for T, Initial residual = 4.06964e-08, Final residual = 4.06964e-08, No Iterations 0
DICPCG:  Solving for T, Initial residual = 4.06964e-08, Final residual = 4.06964e-08, No Iterations 0
ExecutionTime = 18.81 s  ClockTime = 20 s

Time = 2

DICPCG:  Solving for T, Initial residual = 0.00011047, Final residual = 1.11305e-08, No Iterations 1
DICPCG:  Solving for T, Initial residual = 4.00033e-08, Final residual = 4.00033e-08, No Iterations 0
DICPCG:  Solving for T, Initial residual = 4.00033e-08, Final residual = 4.00033e-08, No Iterations 0
ExecutionTime = 19.12 s  ClockTime = 21 s

Time = 2.025

DICPCG:  Solving for T, Initial residual = 0.000109308, Final residual = 1.09825e-08, No Iterations 1
DICPCG:  Solving for T, Initial residual = 3.933e-08, Final residual = 3.933e-08, No Iterations 0
DICPCG:  Solving for T, Initial residual = 3.933e-08, Final residual = 3.933e-08, No Iterations 0
ExecutionTime = 19.41 s  ClockTime = 21 s

Time = 2.05

DICPCG:  Solving for T, Initial residual = 0.000108174, Final residual = 1.08379e-08, No Iterations 1
DICPCG:  Solving for T, Initial residual = 3.8678e-08, Final residual = 3.8678e-08, No Iterations 0
DICPCG:  Solving for T, Initial residual = 3.8678e-08, Final residual = 3.8678e-08, No Iterations 0
ExecutionTime = 19.72 s  ClockTime = 21 s

Time = 2.075

DICPCG:  Solving for T, Initial residual = 0.000107067, Final residual = 1.06966e-08, No Iterations 1
DICPCG:  Solving for T, Initial residual = 3.80481e-08, Final residual = 3.80481e-08, No Iterations 0
DICPCG:  Solving for T, Initial residual = 3.80481e-08, Final residual = 3.80481e-08, No Iterations 0
ExecutionTime = 19.94 s  ClockTime = 22 s

Time = 2.1

DICPCG:  Solving for T, Initial residual = 0.000105985, Final residual = 1.05584e-08, No Iterations 1
DICPCG:  Solving for T, Initial residual = 3.7437e-08, Final residual = 3.7437e-08, No Iterations 0
DICPCG:  Solving for T, Initial residual = 3.7437e-08, Final residual = 3.7437e-08, No Iterations 0
ExecutionTime = 20.16 s  ClockTime = 22 s

Time = 2.125

DICPCG:  Solving for T, Initial residual = 0.000104929, Final residual = 1.04234e-08, No Iterations 1
DICPCG:  Solving for T, Initial residual = 3.68424e-08, Final residual = 3.68424e-08, No Iterations 0
DICPCG:  Solving for T, Initial residual = 3.68424e-08, Final residual = 3.68424e-08, No Iterations 0
ExecutionTime = 20.34 s  ClockTime = 22 s

Time = 2.15

DICPCG:  Solving for T, Initial residual = 0.000103896, Final residual = 1.02914e-08, No Iterations 1
DICPCG:  Solving for T, Initial residual = 3.6265e-08, Final residual = 3.6265e-08, No Iterations 0
DICPCG:  Solving for T, Initial residual = 3.6265e-08, Final residual = 3.6265e-08, No Iterations 0
ExecutionTime = 20.58 s  ClockTime = 22 s

Time = 2.175

DICPCG:  Solving for T, Initial residual = 0.000102887, Final residual = 1.01622e-08, No Iterations 1
DICPCG:  Solving for T, Initial residual = 3.57029e-08, Final residual = 3.57029e-08, No Iterations 0
DICPCG:  Solving for T, Initial residual = 3.57029e-08, Final residual = 3.57029e-08, No Iterations 0
ExecutionTime = 20.88 s  ClockTime = 23 s

Time = 2.2

DICPCG:  Solving for T, Initial residual = 0.0001019, Final residual = 1.00359e-08, No Iterations 1
DICPCG:  Solving for T, Initial residual = 3.51584e-08, Final residual = 3.51584e-08, No Iterations 0
DICPCG:  Solving for T, Initial residual = 3.51584e-08, Final residual = 3.51584e-08, No Iterations 0
ExecutionTime = 21.19 s  ClockTime = 23 s

Time = 2.225

DICPCG:  Solving for T, Initial residual = 0.000100935, Final residual = 9.91223e-09, No Iterations 1
DICPCG:  Solving for T, Initial residual = 3.46294e-08, Final residual = 3.46294e-08, No Iterations 0
DICPCG:  Solving for T, Initial residual = 3.46294e-08, Final residual = 3.46294e-08, No Iterations 0
ExecutionTime = 21.49 s  ClockTime = 23 s

Time = 2.25

DICPCG:  Solving for T, Initial residual = 9.99901e-05, Final residual = 9.79118e-09, No Iterations 1
DICPCG:  Solving for T, Initial residual = 3.41141e-08, Final residual = 3.41141e-08, No Iterations 0
DICPCG:  Solving for T, Initial residual = 3.41141e-08, Final residual = 3.41141e-08, No Iterations 0
ExecutionTime = 21.77 s  ClockTime = 23 s

Time = 2.275

DICPCG:  Solving for T, Initial residual = 9.90659e-05, Final residual = 9.67264e-09, No Iterations 1
DICPCG:  Solving for T, Initial residual = 3.36123e-08, Final residual = 3.36123e-08, No Iterations 0
DICPCG:  Solving for T, Initial residual = 3.36123e-08, Final residual = 3.36123e-08, No Iterations 0
ExecutionTime = 22.07 s  ClockTime = 24 s

Time = 2.3

DICPCG:  Solving for T, Initial residual = 9.81611e-05, Final residual = 9.55657e-09, No Iterations 1
DICPCG:  Solving for T, Initial residual = 3.31243e-08, Final residual = 3.31243e-08, No Iterations 0
DICPCG:  Solving for T, Initial residual = 3.31243e-08, Final residual = 3.31243e-08, No Iterations 0
ExecutionTime = 22.28 s  ClockTime = 24 s

Time = 2.325

DICPCG:  Solving for T, Initial residual = 9.72752e-05, Final residual = 9.44288e-09, No Iterations 1
DICPCG:  Solving for T, Initial residual = 3.26485e-08, Final residual = 3.26485e-08, No Iterations 0
DICPCG:  Solving for T, Initial residual = 3.26485e-08, Final residual = 3.26485e-08, No Iterations 0
ExecutionTime = 22.52 s  ClockTime = 24 s

Time = 2.35

DICPCG:  Solving for T, Initial residual = 9.64076e-05, Final residual = 9.33159e-09, No Iterations 1
DICPCG:  Solving for T, Initial residual = 3.21865e-08, Final residual = 3.21865e-08, No Iterations 0
DICPCG:  Solving for T, Initial residual = 3.21865e-08, Final residual = 3.21865e-08, No Iterations 0
ExecutionTime = 22.73 s  ClockTime = 24 s

Time = 2.375

DICPCG:  Solving for T, Initial residual = 9.55576e-05, Final residual = 9.22254e-09, No Iterations 1
DICPCG:  Solving for T, Initial residual = 3.17358e-08, Final residual = 3.17358e-08, No Iterations 0
DICPCG:  Solving for T, Initial residual = 3.17358e-08, Final residual = 3.17358e-08, No Iterations 0
ExecutionTime = 22.91 s  ClockTime = 25 s

Time = 2.4

DICPCG:  Solving for T, Initial residual = 9.47248e-05, Final residual = 9.11569e-09, No Iterations 1
DICPCG:  Solving for T, Initial residual = 3.12988e-08, Final residual = 3.12988e-08, No Iterations 0
DICPCG:  Solving for T, Initial residual = 3.12988e-08, Final residual = 3.12988e-08, No Iterations 0
ExecutionTime = 23.13 s  ClockTime = 25 s

Time = 2.425

DICPCG:  Solving for T, Initial residual = 9.39085e-05, Final residual = 9.01098e-09, No Iterations 1
DICPCG:  Solving for T, Initial residual = 3.08726e-08, Final residual = 3.08726e-08, No Iterations 0
DICPCG:  Solving for T, Initial residual = 3.08726e-08, Final residual = 3.08726e-08, No Iterations 0
ExecutionTime = 23.3 s  ClockTime = 25 s

Time = 2.45

DICPCG:  Solving for T, Initial residual = 9.31082e-05, Final residual = 8.90834e-09, No Iterations 1
DICPCG:  Solving for T, Initial residual = 3.0458e-08, Final residual = 3.0458e-08, No Iterations 0
DICPCG:  Solving for T, Initial residual = 3.0458e-08, Final residual = 3.0458e-08, No Iterations 0
ExecutionTime = 23.51 s  ClockTime = 25 s

Time = 2.475

DICPCG:  Solving for T, Initial residual = 9.23235e-05, Final residual = 8.80773e-09, No Iterations 1
DICPCG:  Solving for T, Initial residual = 3.00553e-08, Final residual = 3.00553e-08, No Iterations 0
DICPCG:  Solving for T, Initial residual = 3.00553e-08, Final residual = 3.00553e-08, No Iterations 0
ExecutionTime = 23.73 s  ClockTime = 25 s

Time = 2.5

DICPCG:  Solving for T, Initial residual = 9.15539e-05, Final residual = 8.70909e-09, No Iterations 1
DICPCG:  Solving for T, Initial residual = 2.96622e-08, Final residual = 2.96622e-08, No Iterations 0
DICPCG:  Solving for T, Initial residual = 2.96622e-08, Final residual = 2.96622e-08, No Iterations 0
ExecutionTime = 23.94 s  ClockTime = 26 s

Time = 2.525

DICPCG:  Solving for T, Initial residual = 9.07989e-05, Final residual = 8.61244e-09, No Iterations 1
DICPCG:  Solving for T, Initial residual = 2.92781e-08, Final residual = 2.92781e-08, No Iterations 0
DICPCG:  Solving for T, Initial residual = 2.92781e-08, Final residual = 2.92781e-08, No Iterations 0
ExecutionTime = 24.16 s  ClockTime = 26 s

Time = 2.55

DICPCG:  Solving for T, Initial residual = 9.00582e-05, Final residual = 8.51773e-09, No Iterations 1
DICPCG:  Solving for T, Initial residual = 2.89035e-08, Final residual = 2.89035e-08, No Iterations 0
DICPCG:  Solving for T, Initial residual = 2.89035e-08, Final residual = 2.89035e-08, No Iterations 0
ExecutionTime = 24.36 s  ClockTime = 26 s

Time = 2.575

DICPCG:  Solving for T, Initial residual = 8.93311e-05, Final residual = 8.42484e-09, No Iterations 1
DICPCG:  Solving for T, Initial residual = 2.85399e-08, Final residual = 2.85399e-08, No Iterations 0
DICPCG:  Solving for T, Initial residual = 2.85399e-08, Final residual = 2.85399e-08, No Iterations 0
ExecutionTime = 24.59 s  ClockTime = 26 s

Time = 2.6

DICPCG:  Solving for T, Initial residual = 8.86175e-05, Final residual = 8.33377e-09, No Iterations 1
DICPCG:  Solving for T, Initial residual = 2.81852e-08, Final residual = 2.81852e-08, No Iterations 0
DICPCG:  Solving for T, Initial residual = 2.81852e-08, Final residual = 2.81852e-08, No Iterations 0
ExecutionTime = 24.77 s  ClockTime = 26 s

Time = 2.625

DICPCG:  Solving for T, Initial residual = 8.79169e-05, Final residual = 8.24441e-09, No Iterations 1
DICPCG:  Solving for T, Initial residual = 2.78395e-08, Final residual = 2.78395e-08, No Iterations 0
DICPCG:  Solving for T, Initial residual = 2.78395e-08, Final residual = 2.78395e-08, No Iterations 0
ExecutionTime = 24.98 s  ClockTime = 27 s

Time = 2.65

DICPCG:  Solving for T, Initial residual = 8.72288e-05, Final residual = 8.15672e-09, No Iterations 1
DICPCG:  Solving for T, Initial residual = 2.75026e-08, Final residual = 2.75026e-08, No Iterations 0
DICPCG:  Solving for T, Initial residual = 2.75026e-08, Final residual = 2.75026e-08, No Iterations 0
ExecutionTime = 25.19 s  ClockTime = 27 s

Time = 2.675

DICPCG:  Solving for T, Initial residual = 8.6553e-05, Final residual = 8.07067e-09, No Iterations 1
DICPCG:  Solving for T, Initial residual = 2.71732e-08, Final residual = 2.71732e-08, No Iterations 0
DICPCG:  Solving for T, Initial residual = 2.71732e-08, Final residual = 2.71732e-08, No Iterations 0
ExecutionTime = 25.38 s  ClockTime = 27 s

Time = 2.7

DICPCG:  Solving for T, Initial residual = 8.58892e-05, Final residual = 7.98621e-09, No Iterations 1
DICPCG:  Solving for T, Initial residual = 2.68512e-08, Final residual = 2.68512e-08, No Iterations 0
DICPCG:  Solving for T, Initial residual = 2.68512e-08, Final residual = 2.68512e-08, No Iterations 0
ExecutionTime = 25.58 s  ClockTime = 27 s

Time = 2.725

DICPCG:  Solving for T, Initial residual = 8.52369e-05, Final residual = 7.9033e-09, No Iterations 1
DICPCG:  Solving for T, Initial residual = 2.65362e-08, Final residual = 2.65362e-08, No Iterations 0
DICPCG:  Solving for T, Initial residual = 2.65362e-08, Final residual = 2.65362e-08, No Iterations 0
ExecutionTime = 25.77 s  ClockTime = 27 s

Time = 2.75

DICPCG:  Solving for T, Initial residual = 8.45958e-05, Final residual = 7.82193e-09, No Iterations 1
DICPCG:  Solving for T, Initial residual = 2.62277e-08, Final residual = 2.62277e-08, No Iterations 0
DICPCG:  Solving for T, Initial residual = 2.62277e-08, Final residual = 2.62277e-08, No Iterations 0
ExecutionTime = 26.02 s  ClockTime = 28 s

Time = 2.775

DICPCG:  Solving for T, Initial residual = 8.39657e-05, Final residual = 7.74203e-09, No Iterations 1
DICPCG:  Solving for T, Initial residual = 2.59271e-08, Final residual = 2.59271e-08, No Iterations 0
DICPCG:  Solving for T, Initial residual = 2.59271e-08, Final residual = 2.59271e-08, No Iterations 0
ExecutionTime = 26.22 s  ClockTime = 28 s

Time = 2.8

DICPCG:  Solving for T, Initial residual = 8.33463e-05, Final residual = 7.66357e-09, No Iterations 1
DICPCG:  Solving for T, Initial residual = 2.56325e-08, Final residual = 2.56325e-08, No Iterations 0
DICPCG:  Solving for T, Initial residual = 2.56325e-08, Final residual = 2.56325e-08, No Iterations 0
ExecutionTime = 26.43 s  ClockTime = 28 s

Time = 2.825

DICPCG:  Solving for T, Initial residual = 8.27373e-05, Final residual = 7.58651e-09, No Iterations 1
DICPCG:  Solving for T, Initial residual = 2.53439e-08, Final residual = 2.53439e-08, No Iterations 0
DICPCG:  Solving for T, Initial residual = 2.53439e-08, Final residual = 2.53439e-08, No Iterations 0
ExecutionTime = 26.62 s  ClockTime = 28 s

Time = 2.85

DICPCG:  Solving for T, Initial residual = 8.21383e-05, Final residual = 7.51083e-09, No Iterations 1
DICPCG:  Solving for T, Initial residual = 2.50622e-08, Final residual = 2.50622e-08, No Iterations 0
DICPCG:  Solving for T, Initial residual = 2.50622e-08, Final residual = 2.50622e-08, No Iterations 0
ExecutionTime = 26.81 s  ClockTime = 29 s

Time = 2.875

DICPCG:  Solving for T, Initial residual = 8.15492e-05, Final residual = 7.43649e-09, No Iterations 1
DICPCG:  Solving for T, Initial residual = 2.47858e-08, Final residual = 2.47858e-08, No Iterations 0
DICPCG:  Solving for T, Initial residual = 2.47858e-08, Final residual = 2.47858e-08, No Iterations 0
ExecutionTime = 27.05 s  ClockTime = 29 s

Time = 2.9

DICPCG:  Solving for T, Initial residual = 8.09697e-05, Final residual = 7.36348e-09, No Iterations 1
DICPCG:  Solving for T, Initial residual = 2.45146e-08, Final residual = 2.45146e-08, No Iterations 0
DICPCG:  Solving for T, Initial residual = 2.45146e-08, Final residual = 2.45146e-08, No Iterations 0
ExecutionTime = 27.25 s  ClockTime = 29 s

Time = 2.925

DICPCG:  Solving for T, Initial residual = 8.03995e-05, Final residual = 7.29174e-09, No Iterations 1
DICPCG:  Solving for T, Initial residual = 2.42484e-08, Final residual = 2.42484e-08, No Iterations 0
DICPCG:  Solving for T, Initial residual = 2.42484e-08, Final residual = 2.42484e-08, No Iterations 0
ExecutionTime = 27.47 s  ClockTime = 29 s

Time = 2.95

DICPCG:  Solving for T, Initial residual = 7.98385e-05, Final residual = 7.22123e-09, No Iterations 1
DICPCG:  Solving for T, Initial residual = 2.3987e-08, Final residual = 2.3987e-08, No Iterations 0
DICPCG:  Solving for T, Initial residual = 2.3987e-08, Final residual = 2.3987e-08, No Iterations 0
ExecutionTime = 27.66 s  ClockTime = 29 s

Time = 2.975

DICPCG:  Solving for T, Initial residual = 7.92863e-05, Final residual = 7.15194e-09, No Iterations 1
DICPCG:  Solving for T, Initial residual = 2.37304e-08, Final residual = 2.37304e-08, No Iterations 0
DICPCG:  Solving for T, Initial residual = 2.37304e-08, Final residual = 2.37304e-08, No Iterations 0
ExecutionTime = 27.86 s  ClockTime = 30 s

Time = 3

DICPCG:  Solving for T, Initial residual = 7.87427e-05, Final residual = 7.08382e-09, No Iterations 1
DICPCG:  Solving for T, Initial residual = 2.34784e-08, Final residual = 2.34784e-08, No Iterations 0
DICPCG:  Solving for T, Initial residual = 2.34784e-08, Final residual = 2.34784e-08, No Iterations 0
ExecutionTime = 28.09 s  ClockTime = 30 s

Time = 3.025

DICPCG:  Solving for T, Initial residual = 7.82076e-05, Final residual = 7.01687e-09, No Iterations 1
DICPCG:  Solving for T, Initial residual = 2.32309e-08, Final residual = 2.32309e-08, No Iterations 0
DICPCG:  Solving for T, Initial residual = 2.32309e-08, Final residual = 2.32309e-08, No Iterations 0
ExecutionTime = 28.29 s  ClockTime = 30 s

Time = 3.05

DICPCG:  Solving for T, Initial residual = 7.76807e-05, Final residual = 6.95106e-09, No Iterations 1
DICPCG:  Solving for T, Initial residual = 2.29878e-08, Final residual = 2.29878e-08, No Iterations 0
DICPCG:  Solving for T, Initial residual = 2.29878e-08, Final residual = 2.29878e-08, No Iterations 0
ExecutionTime = 28.51 s  ClockTime = 30 s

Time = 3.075

DICPCG:  Solving for T, Initial residual = 7.71618e-05, Final residual = 6.88636e-09, No Iterations 1
DICPCG:  Solving for T, Initial residual = 2.27489e-08, Final residual = 2.27489e-08, No Iterations 0
DICPCG:  Solving for T, Initial residual = 2.27489e-08, Final residual = 2.27489e-08, No Iterations 0
ExecutionTime = 28.74 s  ClockTime = 30 s

Time = 3.1

DICPCG:  Solving for T, Initial residual = 7.66507e-05, Final residual = 6.82274e-09, No Iterations 1
DICPCG:  Solving for T, Initial residual = 2.25143e-08, Final residual = 2.25143e-08, No Iterations 0
DICPCG:  Solving for T, Initial residual = 2.25143e-08, Final residual = 2.25143e-08, No Iterations 0
ExecutionTime = 28.98 s  ClockTime = 31 s

Time = 3.125

DICPCG:  Solving for T, Initial residual = 7.61473e-05, Final residual = 6.76016e-09, No Iterations 1
DICPCG:  Solving for T, Initial residual = 2.22839e-08, Final residual = 2.22839e-08, No Iterations 0
DICPCG:  Solving for T, Initial residual = 2.22839e-08, Final residual = 2.22839e-08, No Iterations 0
ExecutionTime = 29.17 s  ClockTime = 31 s

Time = 3.15

DICPCG:  Solving for T, Initial residual = 7.56513e-05, Final residual = 6.6986e-09, No Iterations 1
DICPCG:  Solving for T, Initial residual = 2.20574e-08, Final residual = 2.20574e-08, No Iterations 0
DICPCG:  Solving for T, Initial residual = 2.20574e-08, Final residual = 2.20574e-08, No Iterations 0
ExecutionTime = 29.38 s  ClockTime = 31 s

Time = 3.175

DICPCG:  Solving for T, Initial residual = 7.51626e-05, Final residual = 6.63805e-09, No Iterations 1
DICPCG:  Solving for T, Initial residual = 2.18348e-08, Final residual = 2.18348e-08, No Iterations 0
DICPCG:  Solving for T, Initial residual = 2.18348e-08, Final residual = 2.18348e-08, No Iterations 0
ExecutionTime = 29.6 s  ClockTime = 31 s

Time = 3.2

DICPCG:  Solving for T, Initial residual = 7.4681e-05, Final residual = 6.57846e-09, No Iterations 1
DICPCG:  Solving for T, Initial residual = 2.16159e-08, Final residual = 2.16159e-08, No Iterations 0
DICPCG:  Solving for T, Initial residual = 2.16159e-08, Final residual = 2.16159e-08, No Iterations 0
ExecutionTime = 29.79 s  ClockTime = 32 s

Time = 3.225

DICPCG:  Solving for T, Initial residual = 7.42063e-05, Final residual = 6.51984e-09, No Iterations 1
DICPCG:  Solving for T, Initial residual = 2.14008e-08, Final residual = 2.14008e-08, No Iterations 0
DICPCG:  Solving for T, Initial residual = 2.14008e-08, Final residual = 2.14008e-08, No Iterations 0
ExecutionTime = 30 s  ClockTime = 32 s

Time = 3.25

DICPCG:  Solving for T, Initial residual = 7.37385e-05, Final residual = 6.46224e-09, No Iterations 1
DICPCG:  Solving for T, Initial residual = 2.11893e-08, Final residual = 2.11893e-08, No Iterations 0
DICPCG:  Solving for T, Initial residual = 2.11893e-08, Final residual = 2.11893e-08, No Iterations 0
ExecutionTime = 30.22 s  ClockTime = 32 s

Time = 3.275

DICPCG:  Solving for T, Initial residual = 7.32772e-05, Final residual = 6.40559e-09, No Iterations 1
DICPCG:  Solving for T, Initial residual = 2.09813e-08, Final residual = 2.09813e-08, No Iterations 0
DICPCG:  Solving for T, Initial residual = 2.09813e-08, Final residual = 2.09813e-08, No Iterations 0
ExecutionTime = 30.43 s  ClockTime = 32 s

Time = 3.3

DICPCG:  Solving for T, Initial residual = 7.28224e-05, Final residual = 6.34984e-09, No Iterations 1
DICPCG:  Solving for T, Initial residual = 2.07768e-08, Final residual = 2.07768e-08, No Iterations 0
DICPCG:  Solving for T, Initial residual = 2.07768e-08, Final residual = 2.07768e-08, No Iterations 0
ExecutionTime = 30.64 s  ClockTime = 32 s

Time = 3.325

DICPCG:  Solving for T, Initial residual = 7.2374e-05, Final residual = 6.29495e-09, No Iterations 1
DICPCG:  Solving for T, Initial residual = 2.05755e-08, Final residual = 2.05755e-08, No Iterations 0
DICPCG:  Solving for T, Initial residual = 2.05755e-08, Final residual = 2.05755e-08, No Iterations 0
ExecutionTime = 30.85 s  ClockTime = 33 s

Time = 3.35

DICPCG:  Solving for T, Initial residual = 7.19318e-05, Final residual = 6.24092e-09, No Iterations 1
DICPCG:  Solving for T, Initial residual = 2.03775e-08, Final residual = 2.03775e-08, No Iterations 0
DICPCG:  Solving for T, Initial residual = 2.03775e-08, Final residual = 2.03775e-08, No Iterations 0
ExecutionTime = 31.08 s  ClockTime = 33 s

Time = 3.375

DICPCG:  Solving for T, Initial residual = 7.14957e-05, Final residual = 6.18771e-09, No Iterations 1
DICPCG:  Solving for T, Initial residual = 2.01826e-08, Final residual = 2.01826e-08, No Iterations 0
DICPCG:  Solving for T, Initial residual = 2.01826e-08, Final residual = 2.01826e-08, No Iterations 0
ExecutionTime = 31.27 s  ClockTime = 33 s

Time = 3.4

DICPCG:  Solving for T, Initial residual = 7.10655e-05, Final residual = 6.13534e-09, No Iterations 1
DICPCG:  Solving for T, Initial residual = 1.99908e-08, Final residual = 1.99908e-08, No Iterations 0
DICPCG:  Solving for T, Initial residual = 1.99908e-08, Final residual = 1.99908e-08, No Iterations 0
ExecutionTime = 31.55 s  ClockTime = 33 s

Time = 3.425

DICPCG:  Solving for T, Initial residual = 7.06411e-05, Final residual = 6.08377e-09, No Iterations 1
DICPCG:  Solving for T, Initial residual = 1.98021e-08, Final residual = 1.98021e-08, No Iterations 0
DICPCG:  Solving for T, Initial residual = 1.98021e-08, Final residual = 1.98021e-08, No Iterations 0
ExecutionTime = 31.74 s  ClockTime = 33 s

Time = 3.45

DICPCG:  Solving for T, Initial residual = 7.02223e-05, Final residual = 6.03301e-09, No Iterations 1
DICPCG:  Solving for T, Initial residual = 1.96164e-08, Final residual = 1.96164e-08, No Iterations 0
DICPCG:  Solving for T, Initial residual = 1.96164e-08, Final residual = 1.96164e-08, No Iterations 0
ExecutionTime = 31.98 s  ClockTime = 34 s

Time = 3.475

DICPCG:  Solving for T, Initial residual = 6.98091e-05, Final residual = 5.98307e-09, No Iterations 1
DICPCG:  Solving for T, Initial residual = 1.94337e-08, Final residual = 1.94337e-08, No Iterations 0
DICPCG:  Solving for T, Initial residual = 1.94337e-08, Final residual = 1.94337e-08, No Iterations 0
ExecutionTime = 32.17 s  ClockTime = 34 s

Time = 3.5

DICPCG:  Solving for T, Initial residual = 6.94014e-05, Final residual = 5.93391e-09, No Iterations 1
DICPCG:  Solving for T, Initial residual = 1.92539e-08, Final residual = 1.92539e-08, No Iterations 0
DICPCG:  Solving for T, Initial residual = 1.92539e-08, Final residual = 1.92539e-08, No Iterations 0
ExecutionTime = 32.41 s  ClockTime = 34 s

Time = 3.525

DICPCG:  Solving for T, Initial residual = 6.89989e-05, Final residual = 5.88548e-09, No Iterations 1
DICPCG:  Solving for T, Initial residual = 1.90768e-08, Final residual = 1.90768e-08, No Iterations 0
DICPCG:  Solving for T, Initial residual = 1.90768e-08, Final residual = 1.90768e-08, No Iterations 0
ExecutionTime = 32.64 s  ClockTime = 34 s

Time = 3.55

DICPCG:  Solving for T, Initial residual = 6.86017e-05, Final residual = 5.83776e-09, No Iterations 1
DICPCG:  Solving for T, Initial residual = 1.89025e-08, Final residual = 1.89025e-08, No Iterations 0
DICPCG:  Solving for T, Initial residual = 1.89025e-08, Final residual = 1.89025e-08, No Iterations 0
ExecutionTime = 32.83 s  ClockTime = 35 s

Time = 3.575

DICPCG:  Solving for T, Initial residual = 6.82095e-05, Final residual = 5.79073e-09, No Iterations 1
DICPCG:  Solving for T, Initial residual = 1.87308e-08, Final residual = 1.87308e-08, No Iterations 0
DICPCG:  Solving for T, Initial residual = 1.87308e-08, Final residual = 1.87308e-08, No Iterations 0
ExecutionTime = 33.05 s  ClockTime = 35 s

Time = 3.6

DICPCG:  Solving for T, Initial residual = 6.78224e-05, Final residual = 5.74438e-09, No Iterations 1
DICPCG:  Solving for T, Initial residual = 1.85617e-08, Final residual = 1.85617e-08, No Iterations 0
DICPCG:  Solving for T, Initial residual = 1.85617e-08, Final residual = 1.85617e-08, No Iterations 0
ExecutionTime = 33.3 s  ClockTime = 35 s

Time = 3.625

DICPCG:  Solving for T, Initial residual = 6.74401e-05, Final residual = 5.69869e-09, No Iterations 1
DICPCG:  Solving for T, Initial residual = 1.83951e-08, Final residual = 1.83951e-08, No Iterations 0
DICPCG:  Solving for T, Initial residual = 1.83951e-08, Final residual = 1.83951e-08, No Iterations 0
ExecutionTime = 33.66 s  ClockTime = 35 s

Time = 3.65

DICPCG:  Solving for T, Initial residual = 6.70626e-05, Final residual = 5.65366e-09, No Iterations 1
DICPCG:  Solving for T, Initial residual = 1.8231e-08, Final residual = 1.8231e-08, No Iterations 0
DICPCG:  Solving for T, Initial residual = 1.8231e-08, Final residual = 1.8231e-08, No Iterations 0
ExecutionTime = 34.02 s  ClockTime = 36 s

Time = 3.675

DICPCG:  Solving for T, Initial residual = 6.66898e-05, Final residual = 5.60925e-09, No Iterations 1
DICPCG:  Solving for T, Initial residual = 1.80693e-08, Final residual = 1.80693e-08, No Iterations 0
DICPCG:  Solving for T, Initial residual = 1.80693e-08, Final residual = 1.80693e-08, No Iterations 0
ExecutionTime = 34.35 s  ClockTime = 36 s

Time = 3.7

DICPCG:  Solving for T, Initial residual = 6.63217e-05, Final residual = 5.56548e-09, No Iterations 1
DICPCG:  Solving for T, Initial residual = 1.79099e-08, Final residual = 1.79099e-08, No Iterations 0
DICPCG:  Solving for T, Initial residual = 1.79099e-08, Final residual = 1.79099e-08, No Iterations 0
ExecutionTime = 34.63 s  ClockTime = 36 s

Time = 3.725

DICPCG:  Solving for T, Initial residual = 6.5958e-05, Final residual = 5.52233e-09, No Iterations 1
DICPCG:  Solving for T, Initial residual = 1.77529e-08, Final residual = 1.77529e-08, No Iterations 0
DICPCG:  Solving for T, Initial residual = 1.77529e-08, Final residual = 1.77529e-08, No Iterations 0
ExecutionTime = 34.81 s  ClockTime = 37 s

Time = 3.75

DICPCG:  Solving for T, Initial residual = 6.55988e-05, Final residual = 5.47977e-09, No Iterations 1
DICPCG:  Solving for T, Initial residual = 1.75981e-08, Final residual = 1.75981e-08, No Iterations 0
DICPCG:  Solving for T, Initial residual = 1.75981e-08, Final residual = 1.75981e-08, No Iterations 0
ExecutionTime = 35.02 s  ClockTime = 37 s

Time = 3.775

DICPCG:  Solving for T, Initial residual = 6.52439e-05, Final residual = 5.43783e-09, No Iterations 1
DICPCG:  Solving for T, Initial residual = 1.74455e-08, Final residual = 1.74455e-08, No Iterations 0
DICPCG:  Solving for T, Initial residual = 1.74455e-08, Final residual = 1.74455e-08, No Iterations 0
ExecutionTime = 35.21 s  ClockTime = 37 s

Time = 3.8

DICPCG:  Solving for T, Initial residual = 6.48932e-05, Final residual = 5.39645e-09, No Iterations 1
DICPCG:  Solving for T, Initial residual = 1.72951e-08, Final residual = 1.72951e-08, No Iterations 0
DICPCG:  Solving for T, Initial residual = 1.72951e-08, Final residual = 1.72951e-08, No Iterations 0
ExecutionTime = 35.42 s  ClockTime = 37 s

Time = 3.825

DICPCG:  Solving for T, Initial residual = 6.45468e-05, Final residual = 5.35564e-09, No Iterations 1
DICPCG:  Solving for T, Initial residual = 1.71468e-08, Final residual = 1.71468e-08, No Iterations 0
DICPCG:  Solving for T, Initial residual = 1.71468e-08, Final residual = 1.71468e-08, No Iterations 0
ExecutionTime = 35.61 s  ClockTime = 37 s

Time = 3.85

DICPCG:  Solving for T, Initial residual = 6.42044e-05, Final residual = 5.31537e-09, No Iterations 1
DICPCG:  Solving for T, Initial residual = 1.70007e-08, Final residual = 1.70007e-08, No Iterations 0
DICPCG:  Solving for T, Initial residual = 1.70007e-08, Final residual = 1.70007e-08, No Iterations 0
ExecutionTime = 35.79 s  ClockTime = 38 s

Time = 3.875

DICPCG:  Solving for T, Initial residual = 6.3866e-05, Final residual = 5.27565e-09, No Iterations 1
DICPCG:  Solving for T, Initial residual = 1.68566e-08, Final residual = 1.68566e-08, No Iterations 0
DICPCG:  Solving for T, Initial residual = 1.68566e-08, Final residual = 1.68566e-08, No Iterations 0
ExecutionTime = 36.02 s  ClockTime = 38 s

Time = 3.9

DICPCG:  Solving for T, Initial residual = 6.35316e-05, Final residual = 5.23645e-09, No Iterations 1
DICPCG:  Solving for T, Initial residual = 1.67146e-08, Final residual = 1.67146e-08, No Iterations 0
DICPCG:  Solving for T, Initial residual = 1.67146e-08, Final residual = 1.67146e-08, No Iterations 0
ExecutionTime = 36.21 s  ClockTime = 38 s

Time = 3.925

DICPCG:  Solving for T, Initial residual = 6.3201e-05, Final residual = 5.19777e-09, No Iterations 1
DICPCG:  Solving for T, Initial residual = 1.65748e-08, Final residual = 1.65748e-08, No Iterations 0
DICPCG:  Solving for T, Initial residual = 1.65748e-08, Final residual = 1.65748e-08, No Iterations 0
ExecutionTime = 36.41 s  ClockTime = 38 s

Time = 3.95

DICPCG:  Solving for T, Initial residual = 6.28743e-05, Final residual = 5.15961e-09, No Iterations 1
DICPCG:  Solving for T, Initial residual = 1.64368e-08, Final residual = 1.64368e-08, No Iterations 0
DICPCG:  Solving for T, Initial residual = 1.64368e-08, Final residual = 1.64368e-08, No Iterations 0
ExecutionTime = 36.61 s  ClockTime = 38 s

Time = 3.975

DICPCG:  Solving for T, Initial residual = 6.25513e-05, Final residual = 5.12196e-09, No Iterations 1
DICPCG:  Solving for T, Initial residual = 1.63007e-08, Final residual = 1.63007e-08, No Iterations 0
DICPCG:  Solving for T, Initial residual = 1.63007e-08, Final residual = 1.63007e-08, No Iterations 0
ExecutionTime = 36.8 s  ClockTime = 39 s

Time = 4

DICPCG:  Solving for T, Initial residual = 6.22319e-05, Final residual = 5.0848e-09, No Iterations 1
DICPCG:  Solving for T, Initial residual = 1.61665e-08, Final residual = 1.61665e-08, No Iterations 0
DICPCG:  Solving for T, Initial residual = 1.61665e-08, Final residual = 1.61665e-08, No Iterations 0
ExecutionTime = 36.98 s  ClockTime = 39 s

Time = 4.025

DICPCG:  Solving for T, Initial residual = 6.19161e-05, Final residual = 5.04813e-09, No Iterations 1
DICPCG:  Solving for T, Initial residual = 1.60342e-08, Final residual = 1.60342e-08, No Iterations 0
DICPCG:  Solving for T, Initial residual = 1.60342e-08, Final residual = 1.60342e-08, No Iterations 0
ExecutionTime = 37.18 s  ClockTime = 39 s

Time = 4.05

DICPCG:  Solving for T, Initial residual = 6.16038e-05, Final residual = 5.01193e-09, No Iterations 1
DICPCG:  Solving for T, Initial residual = 1.59036e-08, Final residual = 1.59036e-08, No Iterations 0
DICPCG:  Solving for T, Initial residual = 1.59036e-08, Final residual = 1.59036e-08, No Iterations 0
ExecutionTime = 37.36 s  ClockTime = 39 s

Time = 4.075

DICPCG:  Solving for T, Initial residual = 6.12951e-05, Final residual = 4.97619e-09, No Iterations 1
DICPCG:  Solving for T, Initial residual = 1.57748e-08, Final residual = 1.57748e-08, No Iterations 0
DICPCG:  Solving for T, Initial residual = 1.57748e-08, Final residual = 1.57748e-08, No Iterations 0
ExecutionTime = 37.58 s  ClockTime = 39 s

Time = 4.1

DICPCG:  Solving for T, Initial residual = 6.09897e-05, Final residual = 4.9409e-09, No Iterations 1
DICPCG:  Solving for T, Initial residual = 1.56477e-08, Final residual = 1.56477e-08, No Iterations 0
DICPCG:  Solving for T, Initial residual = 1.56477e-08, Final residual = 1.56477e-08, No Iterations 0
ExecutionTime = 37.77 s  ClockTime = 40 s

Time = 4.125

DICPCG:  Solving for T, Initial residual = 6.06876e-05, Final residual = 4.90605e-09, No Iterations 1
DICPCG:  Solving for T, Initial residual = 1.55222e-08, Final residual = 1.55222e-08, No Iterations 0
DICPCG:  Solving for T, Initial residual = 1.55222e-08, Final residual = 1.55222e-08, No Iterations 0
ExecutionTime = 37.97 s  ClockTime = 40 s

Time = 4.15

DICPCG:  Solving for T, Initial residual = 6.03889e-05, Final residual = 4.87164e-09, No Iterations 1
DICPCG:  Solving for T, Initial residual = 1.53983e-08, Final residual = 1.53983e-08, No Iterations 0
DICPCG:  Solving for T, Initial residual = 1.53983e-08, Final residual = 1.53983e-08, No Iterations 0
ExecutionTime = 38.14 s  ClockTime = 40 s

Time = 4.175

DICPCG:  Solving for T, Initial residual = 6.00933e-05, Final residual = 4.83766e-09, No Iterations 1
DICPCG:  Solving for T, Initial residual = 1.52761e-08, Final residual = 1.52761e-08, No Iterations 0
DICPCG:  Solving for T, Initial residual = 1.52761e-08, Final residual = 1.52761e-08, No Iterations 0
ExecutionTime = 38.34 s  ClockTime = 40 s

Time = 4.2

DICPCG:  Solving for T, Initial residual = 5.9801e-05, Final residual = 4.80409e-09, No Iterations 1
DICPCG:  Solving for T, Initial residual = 1.51554e-08, Final residual = 1.51554e-08, No Iterations 0
DICPCG:  Solving for T, Initial residual = 1.51554e-08, Final residual = 1.51554e-08, No Iterations 0
ExecutionTime = 38.53 s  ClockTime = 40 s

Time = 4.225

DICPCG:  Solving for T, Initial residual = 5.95118e-05, Final residual = 4.77095e-09, No Iterations 1
DICPCG:  Solving for T, Initial residual = 1.50362e-08, Final residual = 1.50362e-08, No Iterations 0
DICPCG:  Solving for T, Initial residual = 1.50362e-08, Final residual = 1.50362e-08, No Iterations 0
ExecutionTime = 38.72 s  ClockTime = 40 s

Time = 4.25

DICPCG:  Solving for T, Initial residual = 5.92256e-05, Final residual = 4.73822e-09, No Iterations 1
DICPCG:  Solving for T, Initial residual = 1.49186e-08, Final residual = 1.49186e-08, No Iterations 0
DICPCG:  Solving for T, Initial residual = 1.49186e-08, Final residual = 1.49186e-08, No Iterations 0
ExecutionTime = 38.91 s  ClockTime = 41 s

Time = 4.275

DICPCG:  Solving for T, Initial residual = 5.89424e-05, Final residual = 4.70588e-09, No Iterations 1
DICPCG:  Solving for T, Initial residual = 1.48024e-08, Final residual = 1.48024e-08, No Iterations 0
DICPCG:  Solving for T, Initial residual = 1.48024e-08, Final residual = 1.48024e-08, No Iterations 0
ExecutionTime = 39.09 s  ClockTime = 41 s

Time = 4.3

DICPCG:  Solving for T, Initial residual = 5.86622e-05, Final residual = 4.67393e-09, No Iterations 1
DICPCG:  Solving for T, Initial residual = 1.46877e-08, Final residual = 1.46877e-08, No Iterations 0
DICPCG:  Solving for T, Initial residual = 1.46877e-08, Final residual = 1.46877e-08, No Iterations 0
ExecutionTime = 39.29 s  ClockTime = 41 s

Time = 4.325

DICPCG:  Solving for T, Initial residual = 5.8385e-05, Final residual = 4.64238e-09, No Iterations 1
DICPCG:  Solving for T, Initial residual = 1.45744e-08, Final residual = 1.45744e-08, No Iterations 0
DICPCG:  Solving for T, Initial residual = 1.45744e-08, Final residual = 1.45744e-08, No Iterations 0
ExecutionTime = 39.5 s  ClockTime = 41 s

Time = 4.35

DICPCG:  Solving for T, Initial residual = 5.81105e-05, Final residual = 4.6112e-09, No Iterations 1
DICPCG:  Solving for T, Initial residual = 1.44625e-08, Final residual = 1.44625e-08, No Iterations 0
DICPCG:  Solving for T, Initial residual = 1.44625e-08, Final residual = 1.44625e-08, No Iterations 0
ExecutionTime = 39.67 s  ClockTime = 41 s

Time = 4.375

DICPCG:  Solving for T, Initial residual = 5.7839e-05, Final residual = 4.58039e-09, No Iterations 1
DICPCG:  Solving for T, Initial residual = 1.4352e-08, Final residual = 1.4352e-08, No Iterations 0
DICPCG:  Solving for T, Initial residual = 1.4352e-08, Final residual = 1.4352e-08, No Iterations 0
ExecutionTime = 39.86 s  ClockTime = 42 s

Time = 4.4

DICPCG:  Solving for T, Initial residual = 5.75701e-05, Final residual = 4.54996e-09, No Iterations 1
DICPCG:  Solving for T, Initial residual = 1.42429e-08, Final residual = 1.42429e-08, No Iterations 0
DICPCG:  Solving for T, Initial residual = 1.42429e-08, Final residual = 1.42429e-08, No Iterations 0
ExecutionTime = 40.08 s  ClockTime = 42 s

Time = 4.425

DICPCG:  Solving for T, Initial residual = 5.7304e-05, Final residual = 4.51991e-09, No Iterations 1
DICPCG:  Solving for T, Initial residual = 1.41351e-08, Final residual = 1.41351e-08, No Iterations 0
DICPCG:  Solving for T, Initial residual = 1.41351e-08, Final residual = 1.41351e-08, No Iterations 0
ExecutionTime = 40.27 s  ClockTime = 42 s

Time = 4.45

DICPCG:  Solving for T, Initial residual = 5.70406e-05, Final residual = 4.4902e-09, No Iterations 1
DICPCG:  Solving for T, Initial residual = 1.40286e-08, Final residual = 1.40286e-08, No Iterations 0
DICPCG:  Solving for T, Initial residual = 1.40286e-08, Final residual = 1.40286e-08, No Iterations 0
ExecutionTime = 40.49 s  ClockTime = 42 s

Time = 4.475

DICPCG:  Solving for T, Initial residual = 5.67799e-05, Final residual = 4.46084e-09, No Iterations 1
DICPCG:  Solving for T, Initial residual = 1.39233e-08, Final residual = 1.39233e-08, No Iterations 0
DICPCG:  Solving for T, Initial residual = 1.39233e-08, Final residual = 1.39233e-08, No Iterations 0
ExecutionTime = 40.67 s  ClockTime = 42 s

Time = 4.5

DICPCG:  Solving for T, Initial residual = 5.65217e-05, Final residual = 4.43182e-09, No Iterations 1
DICPCG:  Solving for T, Initial residual = 1.38194e-08, Final residual = 1.38194e-08, No Iterations 0
DICPCG:  Solving for T, Initial residual = 1.38194e-08, Final residual = 1.38194e-08, No Iterations 0
ExecutionTime = 40.87 s  ClockTime = 43 s

Time = 4.525

DICPCG:  Solving for T, Initial residual = 5.62661e-05, Final residual = 4.40313e-09, No Iterations 1
DICPCG:  Solving for T, Initial residual = 1.37167e-08, Final residual = 1.37167e-08, No Iterations 0
DICPCG:  Solving for T, Initial residual = 1.37167e-08, Final residual = 1.37167e-08, No Iterations 0
ExecutionTime = 41.06 s  ClockTime = 43 s

Time = 4.55

DICPCG:  Solving for T, Initial residual = 5.6013e-05, Final residual = 4.37476e-09, No Iterations 1
DICPCG:  Solving for T, Initial residual = 1.36152e-08, Final residual = 1.36152e-08, No Iterations 0
DICPCG:  Solving for T, Initial residual = 1.36152e-08, Final residual = 1.36152e-08, No Iterations 0
ExecutionTime = 41.25 s  ClockTime = 43 s

Time = 4.575

DICPCG:  Solving for T, Initial residual = 5.57624e-05, Final residual = 4.34671e-09, No Iterations 1
DICPCG:  Solving for T, Initial residual = 1.35149e-08, Final residual = 1.35149e-08, No Iterations 0
DICPCG:  Solving for T, Initial residual = 1.35149e-08, Final residual = 1.35149e-08, No Iterations 0
ExecutionTime = 41.47 s  ClockTime = 43 s

Time = 4.6

DICPCG:  Solving for T, Initial residual = 5.55142e-05, Final residual = 4.31898e-09, No Iterations 1
DICPCG:  Solving for T, Initial residual = 1.34158e-08, Final residual = 1.34158e-08, No Iterations 0
DICPCG:  Solving for T, Initial residual = 1.34158e-08, Final residual = 1.34158e-08, No Iterations 0
ExecutionTime = 41.64 s  ClockTime = 43 s

Time = 4.625

DICPCG:  Solving for T, Initial residual = 5.52684e-05, Final residual = 4.29156e-09, No Iterations 1
DICPCG:  Solving for T, Initial residual = 1.33179e-08, Final residual = 1.33179e-08, No Iterations 0
DICPCG:  Solving for T, Initial residual = 1.33179e-08, Final residual = 1.33179e-08, No Iterations 0
ExecutionTime = 41.84 s  ClockTime = 44 s

Time = 4.65

DICPCG:  Solving for T, Initial residual = 5.5025e-05, Final residual = 4.26444e-09, No Iterations 1
DICPCG:  Solving for T, Initial residual = 1.32211e-08, Final residual = 1.32211e-08, No Iterations 0
DICPCG:  Solving for T, Initial residual = 1.32211e-08, Final residual = 1.32211e-08, No Iterations 0
ExecutionTime = 42.05 s  ClockTime = 44 s

Time = 4.675

DICPCG:  Solving for T, Initial residual = 5.4784e-05, Final residual = 4.23762e-09, No Iterations 1
DICPCG:  Solving for T, Initial residual = 1.31254e-08, Final residual = 1.31254e-08, No Iterations 0
DICPCG:  Solving for T, Initial residual = 1.31254e-08, Final residual = 1.31254e-08, No Iterations 0
ExecutionTime = 42.24 s  ClockTime = 44 s

Time = 4.7

DICPCG:  Solving for T, Initial residual = 5.45452e-05, Final residual = 4.2111e-09, No Iterations 1
DICPCG:  Solving for T, Initial residual = 1.30309e-08, Final residual = 1.30309e-08, No Iterations 0
DICPCG:  Solving for T, Initial residual = 1.30309e-08, Final residual = 1.30309e-08, No Iterations 0
ExecutionTime = 42.44 s  ClockTime = 44 s

Time = 4.725

DICPCG:  Solving for T, Initial residual = 5.43087e-05, Final residual = 4.18486e-09, No Iterations 1
DICPCG:  Solving for T, Initial residual = 1.29374e-08, Final residual = 1.29374e-08, No Iterations 0
DICPCG:  Solving for T, Initial residual = 1.29374e-08, Final residual = 1.29374e-08, No Iterations 0
ExecutionTime = 42.66 s  ClockTime = 44 s

Time = 4.75

DICPCG:  Solving for T, Initial residual = 5.40744e-05, Final residual = 4.15891e-09, No Iterations 1
DICPCG:  Solving for T, Initial residual = 1.2845e-08, Final residual = 1.2845e-08, No Iterations 0
DICPCG:  Solving for T, Initial residual = 1.2845e-08, Final residual = 1.2845e-08, No Iterations 0
ExecutionTime = 42.85 s  ClockTime = 45 s

Time = 4.775

DICPCG:  Solving for T, Initial residual = 5.38423e-05, Final residual = 4.13324e-09, No Iterations 1
DICPCG:  Solving for T, Initial residual = 1.27536e-08, Final residual = 1.27536e-08, No Iterations 0
DICPCG:  Solving for T, Initial residual = 1.27536e-08, Final residual = 1.27536e-08, No Iterations 0
ExecutionTime = 43.05 s  ClockTime = 45 s

Time = 4.8

DICPCG:  Solving for T, Initial residual = 5.36123e-05, Final residual = 4.10785e-09, No Iterations 1
DICPCG:  Solving for T, Initial residual = 1.26633e-08, Final residual = 1.26633e-08, No Iterations 0
DICPCG:  Solving for T, Initial residual = 1.26633e-08, Final residual = 1.26633e-08, No Iterations 0
ExecutionTime = 43.22 s  ClockTime = 45 s

Time = 4.825

DICPCG:  Solving for T, Initial residual = 5.33845e-05, Final residual = 4.08273e-09, No Iterations 1
DICPCG:  Solving for T, Initial residual = 1.2574e-08, Final residual = 1.2574e-08, No Iterations 0
DICPCG:  Solving for T, Initial residual = 1.2574e-08, Final residual = 1.2574e-08, No Iterations 0
ExecutionTime = 43.42 s  ClockTime = 45 s

Time = 4.85

DICPCG:  Solving for T, Initial residual = 5.31588e-05, Final residual = 4.05787e-09, No Iterations 1
DICPCG:  Solving for T, Initial residual = 1.24857e-08, Final residual = 1.24857e-08, No Iterations 0
DICPCG:  Solving for T, Initial residual = 1.24857e-08, Final residual = 1.24857e-08, No Iterations 0
ExecutionTime = 43.62 s  ClockTime = 45 s

Time = 4.875

DICPCG:  Solving for T, Initial residual = 5.29351e-05, Final residual = 4.03331e-09, No Iterations 1
DICPCG:  Solving for T, Initial residual = 1.23984e-08, Final residual = 1.23984e-08, No Iterations 0
DICPCG:  Solving for T, Initial residual = 1.23984e-08, Final residual = 1.23984e-08, No Iterations 0
ExecutionTime = 43.81 s  ClockTime = 46 s

Time = 4.9

DICPCG:  Solving for T, Initial residual = 5.27135e-05, Final residual = 4.00901e-09, No Iterations 1
DICPCG:  Solving for T, Initial residual = 1.2312e-08, Final residual = 1.2312e-08, No Iterations 0
DICPCG:  Solving for T, Initial residual = 1.2312e-08, Final residual = 1.2312e-08, No Iterations 0
ExecutionTime = 44.02 s  ClockTime = 46 s

Time = 4.925

DICPCG:  Solving for T, Initial residual = 5.24939e-05, Final residual = 3.98496e-09, No Iterations 1
DICPCG:  Solving for T, Initial residual = 1.22266e-08, Final residual = 1.22266e-08, No Iterations 0
DICPCG:  Solving for T, Initial residual = 1.22266e-08, Final residual = 1.22266e-08, No Iterations 0
ExecutionTime = 44.21 s  ClockTime = 46 s

Time = 4.95

DICPCG:  Solving for T, Initial residual = 5.22763e-05, Final residual = 3.96117e-09, No Iterations 1
DICPCG:  Solving for T, Initial residual = 1.21422e-08, Final residual = 1.21422e-08, No Iterations 0
DICPCG:  Solving for T, Initial residual = 1.21422e-08, Final residual = 1.21422e-08, No Iterations 0
ExecutionTime = 44.43 s  ClockTime = 46 s

Time = 4.975

DICPCG:  Solving for T, Initial residual = 5.20606e-05, Final residual = 3.93762e-09, No Iterations 1
DICPCG:  Solving for T, Initial residual = 1.20586e-08, Final residual = 1.20586e-08, No Iterations 0
DICPCG:  Solving for T, Initial residual = 1.20586e-08, Final residual = 1.20586e-08, No Iterations 0
ExecutionTime = 44.59 s  ClockTime = 46 s

Time = 5

DICPCG:  Solving for T, Initial residual = 5.18469e-05, Final residual = 3.91431e-09, No Iterations 1
DICPCG:  Solving for T, Initial residual = 1.1976e-08, Final residual = 1.1976e-08, No Iterations 0
DICPCG:  Solving for T, Initial residual = 1.1976e-08, Final residual = 1.1976e-08, No Iterations 0
ExecutionTime = 44.8 s  ClockTime = 47 s

Time = 5.025

DICPCG:  Solving for T, Initial residual = 5.1635e-05, Final residual = 3.89124e-09, No Iterations 1
DICPCG:  Solving for T, Initial residual = 1.18943e-08, Final residual = 1.18943e-08, No Iterations 0
DICPCG:  Solving for T, Initial residual = 1.18943e-08, Final residual = 1.18943e-08, No Iterations 0
ExecutionTime = 45 s  ClockTime = 47 s

Time = 5.05

DICPCG:  Solving for T, Initial residual = 5.1425e-05, Final residual = 3.86841e-09, No Iterations 1
DICPCG:  Solving for T, Initial residual = 1.18135e-08, Final residual = 1.18135e-08, No Iterations 0
DICPCG:  Solving for T, Initial residual = 1.18135e-08, Final residual = 1.18135e-08, No Iterations 0
ExecutionTime = 45.19 s  ClockTime = 47 s

Time = 5.075

DICPCG:  Solving for T, Initial residual = 5.12169e-05, Final residual = 3.84581e-09, No Iterations 1
DICPCG:  Solving for T, Initial residual = 1.17336e-08, Final residual = 1.17336e-08, No Iterations 0
DICPCG:  Solving for T, Initial residual = 1.17336e-08, Final residual = 1.17336e-08, No Iterations 0
ExecutionTime = 45.4 s  ClockTime = 47 s

Time = 5.1

DICPCG:  Solving for T, Initial residual = 5.10106e-05, Final residual = 3.82344e-09, No Iterations 1
DICPCG:  Solving for T, Initial residual = 1.16546e-08, Final residual = 1.16546e-08, No Iterations 0
DICPCG:  Solving for T, Initial residual = 1.16546e-08, Final residual = 1.16546e-08, No Iterations 0
ExecutionTime = 45.59 s  ClockTime = 47 s

Time = 5.125

DICPCG:  Solving for T, Initial residual = 5.0806e-05, Final residual = 3.8013e-09, No Iterations 1
DICPCG:  Solving for T, Initial residual = 1.15764e-08, Final residual = 1.15764e-08, No Iterations 0
DICPCG:  Solving for T, Initial residual = 1.15764e-08, Final residual = 1.15764e-08, No Iterations 0
ExecutionTime = 45.76 s  ClockTime = 48 s

Time = 5.15

DICPCG:  Solving for T, Initial residual = 5.06033e-05, Final residual = 3.77937e-09, No Iterations 1
DICPCG:  Solving for T, Initial residual = 1.1499e-08, Final residual = 1.1499e-08, No Iterations 0
DICPCG:  Solving for T, Initial residual = 1.1499e-08, Final residual = 1.1499e-08, No Iterations 0
ExecutionTime = 45.98 s  ClockTime = 48 s

Time = 5.175

DICPCG:  Solving for T, Initial residual = 5.04022e-05, Final residual = 3.75767e-09, No Iterations 1
DICPCG:  Solving for T, Initial residual = 1.14224e-08, Final residual = 1.14224e-08, No Iterations 0
DICPCG:  Solving for T, Initial residual = 1.14224e-08, Final residual = 1.14224e-08, No Iterations 0
ExecutionTime = 46.17 s  ClockTime = 48 s

Time = 5.2

DICPCG:  Solving for T, Initial residual = 5.02029e-05, Final residual = 3.73618e-09, No Iterations 1
DICPCG:  Solving for T, Initial residual = 1.13467e-08, Final residual = 1.13467e-08, No Iterations 0
DICPCG:  Solving for T, Initial residual = 1.13467e-08, Final residual = 1.13467e-08, No Iterations 0
ExecutionTime = 46.38 s  ClockTime = 48 s

Time = 5.225

DICPCG:  Solving for T, Initial residual = 5.00053e-05, Final residual = 3.7149e-09, No Iterations 1
DICPCG:  Solving for T, Initial residual = 1.12717e-08, Final residual = 1.12717e-08, No Iterations 0
DICPCG:  Solving for T, Initial residual = 1.12717e-08, Final residual = 1.12717e-08, No Iterations 0
ExecutionTime = 46.58 s  ClockTime = 48 s

Time = 5.25

DICPCG:  Solving for T, Initial residual = 4.98094e-05, Final residual = 3.69383e-09, No Iterations 1
DICPCG:  Solving for T, Initial residual = 1.11976e-08, Final residual = 1.11976e-08, No Iterations 0
DICPCG:  Solving for T, Initial residual = 1.11976e-08, Final residual = 1.11976e-08, No Iterations 0
ExecutionTime = 46.76 s  ClockTime = 49 s

Time = 5.275

DICPCG:  Solving for T, Initial residual = 4.96151e-05, Final residual = 3.67297e-09, No Iterations 1
DICPCG:  Solving for T, Initial residual = 1.11242e-08, Final residual = 1.11242e-08, No Iterations 0
DICPCG:  Solving for T, Initial residual = 1.11242e-08, Final residual = 1.11242e-08, No Iterations 0
ExecutionTime = 46.96 s  ClockTime = 49 s

Time = 5.3

DICPCG:  Solving for T, Initial residual = 4.94224e-05, Final residual = 3.65231e-09, No Iterations 1
DICPCG:  Solving for T, Initial residual = 1.10516e-08, Final residual = 1.10516e-08, No Iterations 0
DICPCG:  Solving for T, Initial residual = 1.10516e-08, Final residual = 1.10516e-08, No Iterations 0
ExecutionTime = 47.15 s  ClockTime = 49 s

Time = 5.325

DICPCG:  Solving for T, Initial residual = 4.92314e-05, Final residual = 3.63185e-09, No Iterations 1
DICPCG:  Solving for T, Initial residual = 1.09797e-08, Final residual = 1.09797e-08, No Iterations 0
DICPCG:  Solving for T, Initial residual = 1.09797e-08, Final residual = 1.09797e-08, No Iterations 0
ExecutionTime = 47.35 s  ClockTime = 49 s

Time = 5.35

DICPCG:  Solving for T, Initial residual = 4.90419e-05, Final residual = 3.61159e-09, No Iterations 1
DICPCG:  Solving for T, Initial residual = 1.09086e-08, Final residual = 1.09086e-08, No Iterations 0
DICPCG:  Solving for T, Initial residual = 1.09086e-08, Final residual = 1.09086e-08, No Iterations 0
ExecutionTime = 47.53 s  ClockTime = 49 s

Time = 5.375

DICPCG:  Solving for T, Initial residual = 4.8854e-05, Final residual = 3.59152e-09, No Iterations 1
DICPCG:  Solving for T, Initial residual = 1.08382e-08, Final residual = 1.08382e-08, No Iterations 0
DICPCG:  Solving for T, Initial residual = 1.08382e-08, Final residual = 1.08382e-08, No Iterations 0
ExecutionTime = 47.72 s  ClockTime = 50 s

Time = 5.4

DICPCG:  Solving for T, Initial residual = 4.86676e-05, Final residual = 3.57165e-09, No Iterations 1
DICPCG:  Solving for T, Initial residual = 1.07686e-08, Final residual = 1.07686e-08, No Iterations 0
DICPCG:  Solving for T, Initial residual = 1.07686e-08, Final residual = 1.07686e-08, No Iterations 0
ExecutionTime = 47.96 s  ClockTime = 50 s

Time = 5.425

DICPCG:  Solving for T, Initial residual = 4.84828e-05, Final residual = 3.55197e-09, No Iterations 1
DICPCG:  Solving for T, Initial residual = 1.06998e-08, Final residual = 1.06998e-08, No Iterations 0
DICPCG:  Solving for T, Initial residual = 1.06998e-08, Final residual = 1.06998e-08, No Iterations 0
ExecutionTime = 48.15 s  ClockTime = 50 s

Time = 5.45

DICPCG:  Solving for T, Initial residual = 4.82995e-05, Final residual = 3.53247e-09, No Iterations 1
[...]
DICPCG:  Solving for T, Initial residual = 2.0981e-10, Final residual = 2.0981e-10, No Iterations 0
DICPCG:  Solving for T, Initial residual = 2.0981e-10, Final residual = 2.0981e-10, No Iterations 0
ExecutionTime = 768.81 s  ClockTime = 775 s

Time = 99.175

DICPCG:  Solving for T, Initial residual = 3.77884e-06, Final residual = 9.96844e-11, No Iterations 1
DICPCG:  Solving for T, Initial residual = 2.09738e-10, Final residual = 2.09738e-10, No Iterations 0
DICPCG:  Solving for T, Initial residual = 2.09738e-10, Final residual = 2.09738e-10, No Iterations 0
ExecutionTime = 768.95 s  ClockTime = 775 s

Time = 99.2

DICPCG:  Solving for T, Initial residual = 3.77806e-06, Final residual = 9.96495e-11, No Iterations 1
DICPCG:  Solving for T, Initial residual = 2.09666e-10, Final residual = 2.09666e-10, No Iterations 0
DICPCG:  Solving for T, Initial residual = 2.09666e-10, Final residual = 2.09666e-10, No Iterations 0
ExecutionTime = 769.11 s  ClockTime = 775 s

Time = 99.225

DICPCG:  Solving for T, Initial residual = 3.77729e-06, Final residual = 9.96146e-11, No Iterations 1
DICPCG:  Solving for T, Initial residual = 2.09594e-10, Final residual = 2.09594e-10, No Iterations 0
DICPCG:  Solving for T, Initial residual = 2.09594e-10, Final residual = 2.09594e-10, No Iterations 0
ExecutionTime = 769.25 s  ClockTime = 775 s

Time = 99.25

DICPCG:  Solving for T, Initial residual = 3.77652e-06, Final residual = 9.95798e-11, No Iterations 1
DICPCG:  Solving for T, Initial residual = 2.09521e-10, Final residual = 2.09521e-10, No Iterations 0
DICPCG:  Solving for T, Initial residual = 2.09521e-10, Final residual = 2.09521e-10, No Iterations 0
ExecutionTime = 769.39 s  ClockTime = 775 s

Time = 99.275

DICPCG:  Solving for T, Initial residual = 3.77575e-06, Final residual = 9.95449e-11, No Iterations 1
DICPCG:  Solving for T, Initial residual = 2.09449e-10, Final residual = 2.09449e-10, No Iterations 0
DICPCG:  Solving for T, Initial residual = 2.09449e-10, Final residual = 2.09449e-10, No Iterations 0
ExecutionTime = 769.55 s  ClockTime = 775 s

Time = 99.3

DICPCG:  Solving for T, Initial residual = 3.77498e-06, Final residual = 9.95101e-11, No Iterations 1
DICPCG:  Solving for T, Initial residual = 2.09377e-10, Final residual = 2.09377e-10, No Iterations 0
DICPCG:  Solving for T, Initial residual = 2.09377e-10, Final residual = 2.09377e-10, No Iterations 0
ExecutionTime = 769.69 s  ClockTime = 775 s

Time = 99.325

DICPCG:  Solving for T, Initial residual = 3.77421e-06, Final residual = 9.94753e-11, No Iterations 1
DICPCG:  Solving for T, Initial residual = 2.09305e-10, Final residual = 2.09305e-10, No Iterations 0
DICPCG:  Solving for T, Initial residual = 2.09305e-10, Final residual = 2.09305e-10, No Iterations 0
ExecutionTime = 769.83 s  ClockTime = 776 s

Time = 99.35

DICPCG:  Solving for T, Initial residual = 3.77344e-06, Final residual = 9.94405e-11, No Iterations 1
DICPCG:  Solving for T, Initial residual = 2.09234e-10, Final residual = 2.09234e-10, No Iterations 0
DICPCG:  Solving for T, Initial residual = 2.09234e-10, Final residual = 2.09234e-10, No Iterations 0
ExecutionTime = 770.01 s  ClockTime = 776 s

Time = 99.375

DICPCG:  Solving for T, Initial residual = 3.77267e-06, Final residual = 9.94058e-11, No Iterations 1
DICPCG:  Solving for T, Initial residual = 2.09162e-10, Final residual = 2.09162e-10, No Iterations 0
DICPCG:  Solving for T, Initial residual = 2.09162e-10, Final residual = 2.09162e-10, No Iterations 0
ExecutionTime = 770.16 s  ClockTime = 776 s

Time = 99.4

DICPCG:  Solving for T, Initial residual = 3.77191e-06, Final residual = 9.9371e-11, No Iterations 1
DICPCG:  Solving for T, Initial residual = 2.0909e-10, Final residual = 2.0909e-10, No Iterations 0
DICPCG:  Solving for T, Initial residual = 2.0909e-10, Final residual = 2.0909e-10, No Iterations 0
ExecutionTime = 770.3 s  ClockTime = 776 s

Time = 99.425

DICPCG:  Solving for T, Initial residual = 3.77114e-06, Final residual = 9.93363e-11, No Iterations 1
DICPCG:  Solving for T, Initial residual = 2.09018e-10, Final residual = 2.09018e-10, No Iterations 0
DICPCG:  Solving for T, Initial residual = 2.09018e-10, Final residual = 2.09018e-10, No Iterations 0
ExecutionTime = 770.46 s  ClockTime = 776 s

Time = 99.45

DICPCG:  Solving for T, Initial residual = 3.77037e-06, Final residual = 9.93016e-11, No Iterations 1
DICPCG:  Solving for T, Initial residual = 2.08946e-10, Final residual = 2.08946e-10, No Iterations 0
DICPCG:  Solving for T, Initial residual = 2.08946e-10, Final residual = 2.08946e-10, No Iterations 0
ExecutionTime = 770.6 s  ClockTime = 776 s

Time = 99.475

DICPCG:  Solving for T, Initial residual = 3.7696e-06, Final residual = 9.92669e-11, No Iterations 1
DICPCG:  Solving for T, Initial residual = 2.08875e-10, Final residual = 2.08875e-10, No Iterations 0
DICPCG:  Solving for T, Initial residual = 2.08875e-10, Final residual = 2.08875e-10, No Iterations 0
ExecutionTime = 770.74 s  ClockTime = 777 s

Time = 99.5

DICPCG:  Solving for T, Initial residual = 3.76884e-06, Final residual = 9.92323e-11, No Iterations 1
DICPCG:  Solving for T, Initial residual = 2.08803e-10, Final residual = 2.08803e-10, No Iterations 0
DICPCG:  Solving for T, Initial residual = 2.08803e-10, Final residual = 2.08803e-10, No Iterations 0
ExecutionTime = 770.89 s  ClockTime = 777 s

Time = 99.525

DICPCG:  Solving for T, Initial residual = 3.76807e-06, Final residual = 9.91977e-11, No Iterations 1
DICPCG:  Solving for T, Initial residual = 2.08731e-10, Final residual = 2.08731e-10, No Iterations 0
DICPCG:  Solving for T, Initial residual = 2.08731e-10, Final residual = 2.08731e-10, No Iterations 0
ExecutionTime = 771.03 s  ClockTime = 777 s

Time = 99.55

DICPCG:  Solving for T, Initial residual = 3.7673e-06, Final residual = 9.9163e-11, No Iterations 1
DICPCG:  Solving for T, Initial residual = 2.0866e-10, Final residual = 2.0866e-10, No Iterations 0
DICPCG:  Solving for T, Initial residual = 2.0866e-10, Final residual = 2.0866e-10, No Iterations 0
ExecutionTime = 771.17 s  ClockTime = 777 s

Time = 99.575

DICPCG:  Solving for T, Initial residual = 3.76654e-06, Final residual = 9.91284e-11, No Iterations 1
DICPCG:  Solving for T, Initial residual = 2.08588e-10, Final residual = 2.08588e-10, No Iterations 0
DICPCG:  Solving for T, Initial residual = 2.08588e-10, Final residual = 2.08588e-10, No Iterations 0
ExecutionTime = 771.33 s  ClockTime = 777 s

Time = 99.6

DICPCG:  Solving for T, Initial residual = 3.76577e-06, Final residual = 9.90939e-11, No Iterations 1
DICPCG:  Solving for T, Initial residual = 2.08517e-10, Final residual = 2.08517e-10, No Iterations 0
DICPCG:  Solving for T, Initial residual = 2.08517e-10, Final residual = 2.08517e-10, No Iterations 0
ExecutionTime = 771.47 s  ClockTime = 777 s

Time = 99.625

DICPCG:  Solving for T, Initial residual = 3.76501e-06, Final residual = 9.90593e-11, No Iterations 1
DICPCG:  Solving for T, Initial residual = 2.08445e-10, Final residual = 2.08445e-10, No Iterations 0
DICPCG:  Solving for T, Initial residual = 2.08445e-10, Final residual = 2.08445e-10, No Iterations 0
ExecutionTime = 771.62 s  ClockTime = 777 s

Time = 99.65

DICPCG:  Solving for T, Initial residual = 3.76424e-06, Final residual = 9.90248e-11, No Iterations 1
DICPCG:  Solving for T, Initial residual = 2.08374e-10, Final residual = 2.08374e-10, No Iterations 0
DICPCG:  Solving for T, Initial residual = 2.08374e-10, Final residual = 2.08374e-10, No Iterations 0
ExecutionTime = 771.77 s  ClockTime = 778 s

Time = 99.675

DICPCG:  Solving for T, Initial residual = 3.76348e-06, Final residual = 9.89903e-11, No Iterations 1
DICPCG:  Solving for T, Initial residual = 2.08302e-10, Final residual = 2.08302e-10, No Iterations 0
DICPCG:  Solving for T, Initial residual = 2.08302e-10, Final residual = 2.08302e-10, No Iterations 0
ExecutionTime = 771.91 s  ClockTime = 778 s

Time = 99.7

DICPCG:  Solving for T, Initial residual = 3.76271e-06, Final residual = 9.89558e-11, No Iterations 1
DICPCG:  Solving for T, Initial residual = 2.08231e-10, Final residual = 2.08231e-10, No Iterations 0
DICPCG:  Solving for T, Initial residual = 2.08231e-10, Final residual = 2.08231e-10, No Iterations 0
ExecutionTime = 772.05 s  ClockTime = 778 s

Time = 99.725

DICPCG:  Solving for T, Initial residual = 3.76195e-06, Final residual = 9.89213e-11, No Iterations 1
DICPCG:  Solving for T, Initial residual = 2.0816e-10, Final residual = 2.0816e-10, No Iterations 0
DICPCG:  Solving for T, Initial residual = 2.0816e-10, Final residual = 2.0816e-10, No Iterations 0
ExecutionTime = 772.21 s  ClockTime = 778 s

Time = 99.75

DICPCG:  Solving for T, Initial residual = 3.76119e-06, Final residual = 9.88868e-11, No Iterations 1
DICPCG:  Solving for T, Initial residual = 2.08088e-10, Final residual = 2.08088e-10, No Iterations 0
DICPCG:  Solving for T, Initial residual = 2.08088e-10, Final residual = 2.08088e-10, No Iterations 0
ExecutionTime = 772.35 s  ClockTime = 778 s

Time = 99.775

DICPCG:  Solving for T, Initial residual = 3.76042e-06, Final residual = 9.88524e-11, No Iterations 1
DICPCG:  Solving for T, Initial residual = 2.08017e-10, Final residual = 2.08017e-10, No Iterations 0
DICPCG:  Solving for T, Initial residual = 2.08017e-10, Final residual = 2.08017e-10, No Iterations 0
ExecutionTime = 772.5 s  ClockTime = 778 s

Time = 99.8

DICPCG:  Solving for T, Initial residual = 3.75966e-06, Final residual = 9.8818e-11, No Iterations 1
DICPCG:  Solving for T, Initial residual = 2.07946e-10, Final residual = 2.07946e-10, No Iterations 0
DICPCG:  Solving for T, Initial residual = 2.07946e-10, Final residual = 2.07946e-10, No Iterations 0
ExecutionTime = 772.65 s  ClockTime = 778 s

Time = 99.825

DICPCG:  Solving for T, Initial residual = 3.7589e-06, Final residual = 9.87836e-11, No Iterations 1
DICPCG:  Solving for T, Initial residual = 2.07875e-10, Final residual = 2.07875e-10, No Iterations 0
DICPCG:  Solving for T, Initial residual = 2.07875e-10, Final residual = 2.07875e-10, No Iterations 0
ExecutionTime = 772.79 s  ClockTime = 779 s

Time = 99.85

DICPCG:  Solving for T, Initial residual = 3.75814e-06, Final residual = 9.87492e-11, No Iterations 1
DICPCG:  Solving for T, Initial residual = 2.07803e-10, Final residual = 2.07803e-10, No Iterations 0
DICPCG:  Solving for T, Initial residual = 2.07803e-10, Final residual = 2.07803e-10, No Iterations 0
ExecutionTime = 772.94 s  ClockTime = 779 s

Time = 99.875

DICPCG:  Solving for T, Initial residual = 3.75738e-06, Final residual = 9.87149e-11, No Iterations 1
DICPCG:  Solving for T, Initial residual = 2.07732e-10, Final residual = 2.07732e-10, No Iterations 0
DICPCG:  Solving for T, Initial residual = 2.07732e-10, Final residual = 2.07732e-10, No Iterations 0
ExecutionTime = 773.08 s  ClockTime = 779 s

Time = 99.9

DICPCG:  Solving for T, Initial residual = 3.75662e-06, Final residual = 9.86805e-11, No Iterations 1
DICPCG:  Solving for T, Initial residual = 2.07661e-10, Final residual = 2.07661e-10, No Iterations 0
DICPCG:  Solving for T, Initial residual = 2.07661e-10, Final residual = 2.07661e-10, No Iterations 0
ExecutionTime = 773.22 s  ClockTime = 779 s

Time = 99.925

DICPCG:  Solving for T, Initial residual = 3.75585e-06, Final residual = 9.86462e-11, No Iterations 1
DICPCG:  Solving for T, Initial residual = 2.0759e-10, Final residual = 2.0759e-10, No Iterations 0
DICPCG:  Solving for T, Initial residual = 2.0759e-10, Final residual = 2.0759e-10, No Iterations 0
ExecutionTime = 773.38 s  ClockTime = 779 s

Time = 99.95

DICPCG:  Solving for T, Initial residual = 3.75509e-06, Final residual = 9.86119e-11, No Iterations 1
DICPCG:  Solving for T, Initial residual = 2.07519e-10, Final residual = 2.07519e-10, No Iterations 0
DICPCG:  Solving for T, Initial residual = 2.07519e-10, Final residual = 2.07519e-10, No Iterations 0
ExecutionTime = 773.52 s  ClockTime = 779 s

Time = 99.975

DICPCG:  Solving for T, Initial residual = 3.75433e-06, Final residual = 9.85777e-11, No Iterations 1
DICPCG:  Solving for T, Initial residual = 2.07448e-10, Final residual = 2.07448e-10, No Iterations 0
DICPCG:  Solving for T, Initial residual = 2.07448e-10, Final residual = 2.07448e-10, No Iterations 0
ExecutionTime = 773.66 s  ClockTime = 779 s

Time = 100

DICPCG:  Solving for T, Initial residual = 3.75358e-06, Final residual = 9.85434e-11, No Iterations 1
DICPCG:  Solving for T, Initial residual = 2.07377e-10, Final residual = 2.07377e-10, No Iterations 0
DICPCG:  Solving for T, Initial residual = 2.07377e-10, Final residual = 2.07377e-10, No Iterations 0
ExecutionTime = 774.18 s  ClockTime = 780 s

Time = 100.025

DICPCG:  Solving for T, Initial residual = 3.75282e-06, Final residual = 9.85092e-11, No Iterations 1
DICPCG:  Solving for T, Initial residual = 2.07307e-10, Final residual = 2.07307e-10, No Iterations 0
DICPCG:  Solving for T, Initial residual = 2.07307e-10, Final residual = 2.07307e-10, No Iterations 0
ExecutionTime = 774.32 s  ClockTime = 780 s

Time = 100.05

DICPCG:  Solving for T, Initial residual = 3.75206e-06, Final residual = 9.8475e-11, No Iterations 1
DICPCG:  Solving for T, Initial residual = 2.07236e-10, Final residual = 2.07236e-10, No Iterations 0
DICPCG:  Solving for T, Initial residual = 2.07236e-10, Final residual = 2.07236e-10, No Iterations 0
ExecutionTime = 774.47 s  ClockTime = 780 s

Time = 100.075

DICPCG:  Solving for T, Initial residual = 3.7513e-06, Final residual = 9.84408e-11, No Iterations 1
DICPCG:  Solving for T, Initial residual = 2.07165e-10, Final residual = 2.07165e-10, No Iterations 0
DICPCG:  Solving for T, Initial residual = 2.07165e-10, Final residual = 2.07165e-10, No Iterations 0
ExecutionTime = 774.63 s  ClockTime = 780 s

Time = 100.1

DICPCG:  Solving for T, Initial residual = 3.75054e-06, Final residual = 9.84066e-11, No Iterations 1
DICPCG:  Solving for T, Initial residual = 2.07095e-10, Final residual = 2.07095e-10, No Iterations 0
DICPCG:  Solving for T, Initial residual = 2.07095e-10, Final residual = 2.07095e-10, No Iterations 0
ExecutionTime = 774.77 s  ClockTime = 781 s

Time = 100.125

DICPCG:  Solving for T, Initial residual = 3.74978e-06, Final residual = 9.83725e-11, No Iterations 1
DICPCG:  Solving for T, Initial residual = 2.07024e-10, Final residual = 2.07024e-10, No Iterations 0
DICPCG:  Solving for T, Initial residual = 2.07024e-10, Final residual = 2.07024e-10, No Iterations 0
ExecutionTime = 774.91 s  ClockTime = 781 s

Time = 100.15

DICPCG:  Solving for T, Initial residual = 3.74903e-06, Final residual = 9.83384e-11, No Iterations 1
DICPCG:  Solving for T, Initial residual = 2.06953e-10, Final residual = 2.06953e-10, No Iterations 0
DICPCG:  Solving for T, Initial residual = 2.06953e-10, Final residual = 2.06953e-10, No Iterations 0
ExecutionTime = 775.06 s  ClockTime = 781 s

Time = 100.175

DICPCG:  Solving for T, Initial residual = 3.74827e-06, Final residual = 9.83043e-11, No Iterations 1
DICPCG:  Solving for T, Initial residual = 2.06883e-10, Final residual = 2.06883e-10, No Iterations 0
DICPCG:  Solving for T, Initial residual = 2.06883e-10, Final residual = 2.06883e-10, No Iterations 0
ExecutionTime = 775.21 s  ClockTime = 781 s

Time = 100.2

DICPCG:  Solving for T, Initial residual = 3.74751e-06, Final residual = 9.82702e-11, No Iterations 1
DICPCG:  Solving for T, Initial residual = 2.06812e-10, Final residual = 2.06812e-10, No Iterations 0
DICPCG:  Solving for T, Initial residual = 2.06812e-10, Final residual = 2.06812e-10, No Iterations 0
ExecutionTime = 775.34 s  ClockTime = 781 s

Time = 100.225

DICPCG:  Solving for T, Initial residual = 3.74676e-06, Final residual = 9.82361e-11, No Iterations 1
DICPCG:  Solving for T, Initial residual = 2.06742e-10, Final residual = 2.06742e-10, No Iterations 0
DICPCG:  Solving for T, Initial residual = 2.06742e-10, Final residual = 2.06742e-10, No Iterations 0
ExecutionTime = 775.5 s  ClockTime = 781 s

Time = 100.25

DICPCG:  Solving for T, Initial residual = 3.746e-06, Final residual = 9.82021e-11, No Iterations 1
DICPCG:  Solving for T, Initial residual = 2.06671e-10, Final residual = 2.06671e-10, No Iterations 0
DICPCG:  Solving for T, Initial residual = 2.06671e-10, Final residual = 2.06671e-10, No Iterations 0
ExecutionTime = 775.64 s  ClockTime = 781 s

Time = 100.275

DICPCG:  Solving for T, Initial residual = 3.74525e-06, Final residual = 9.8168e-11, No Iterations 1
DICPCG:  Solving for T, Initial residual = 2.06601e-10, Final residual = 2.06601e-10, No Iterations 0
DICPCG:  Solving for T, Initial residual = 2.06601e-10, Final residual = 2.06601e-10, No Iterations 0
ExecutionTime = 775.79 s  ClockTime = 782 s

Time = 100.3

DICPCG:  Solving for T, Initial residual = 3.74449e-06, Final residual = 9.8134e-11, No Iterations 1
DICPCG:  Solving for T, Initial residual = 2.0653e-10, Final residual = 2.0653e-10, No Iterations 0
DICPCG:  Solving for T, Initial residual = 2.0653e-10, Final residual = 2.0653e-10, No Iterations 0
ExecutionTime = 775.94 s  ClockTime = 782 s

Time = 100.325

DICPCG:  Solving for T, Initial residual = 3.74374e-06, Final residual = 9.81e-11, No Iterations 1
DICPCG:  Solving for T, Initial residual = 2.0646e-10, Final residual = 2.0646e-10, No Iterations 0
DICPCG:  Solving for T, Initial residual = 2.0646e-10, Final residual = 2.0646e-10, No Iterations 0
ExecutionTime = 776.1 s  ClockTime = 782 s

Time = 100.35

DICPCG:  Solving for T, Initial residual = 3.74298e-06, Final residual = 9.8066e-11, No Iterations 1
DICPCG:  Solving for T, Initial residual = 2.0639e-10, Final residual = 2.0639e-10, No Iterations 0
DICPCG:  Solving for T, Initial residual = 2.0639e-10, Final residual = 2.0639e-10, No Iterations 0
ExecutionTime = 776.28 s  ClockTime = 782 s

Time = 100.375

DICPCG:  Solving for T, Initial residual = 3.74223e-06, Final residual = 9.80321e-11, No Iterations 1
DICPCG:  Solving for T, Initial residual = 2.0632e-10, Final residual = 2.0632e-10, No Iterations 0
DICPCG:  Solving for T, Initial residual = 2.0632e-10, Final residual = 2.0632e-10, No Iterations 0
ExecutionTime = 776.44 s  ClockTime = 782 s

Time = 100.4

DICPCG:  Solving for T, Initial residual = 3.74147e-06, Final residual = 9.79982e-11, No Iterations 1
DICPCG:  Solving for T, Initial residual = 2.06249e-10, Final residual = 2.06249e-10, No Iterations 0
DICPCG:  Solving for T, Initial residual = 2.06249e-10, Final residual = 2.06249e-10, No Iterations 0
ExecutionTime = 776.58 s  ClockTime = 782 s

Time = 100.425

DICPCG:  Solving for T, Initial residual = 3.74072e-06, Final residual = 9.79643e-11, No Iterations 1
DICPCG:  Solving for T, Initial residual = 2.06179e-10, Final residual = 2.06179e-10, No Iterations 0
DICPCG:  Solving for T, Initial residual = 2.06179e-10, Final residual = 2.06179e-10, No Iterations 0
ExecutionTime = 776.73 s  ClockTime = 783 s

Time = 100.45

DICPCG:  Solving for T, Initial residual = 3.73997e-06, Final residual = 9.79304e-11, No Iterations 1
DICPCG:  Solving for T, Initial residual = 2.06109e-10, Final residual = 2.06109e-10, No Iterations 0
DICPCG:  Solving for T, Initial residual = 2.06109e-10, Final residual = 2.06109e-10, No Iterations 0
ExecutionTime = 776.88 s  ClockTime = 783 s

Time = 100.475

DICPCG:  Solving for T, Initial residual = 3.73922e-06, Final residual = 9.78965e-11, No Iterations 1
DICPCG:  Solving for T, Initial residual = 2.06039e-10, Final residual = 2.06039e-10, No Iterations 0
DICPCG:  Solving for T, Initial residual = 2.06039e-10, Final residual = 2.06039e-10, No Iterations 0
ExecutionTime = 777.03 s  ClockTime = 783 s

Time = 100.5

DICPCG:  Solving for T, Initial residual = 3.73846e-06, Final residual = 9.78627e-11, No Iterations 1
DICPCG:  Solving for T, Initial residual = 2.05969e-10, Final residual = 2.05969e-10, No Iterations 0
DICPCG:  Solving for T, Initial residual = 2.05969e-10, Final residual = 2.05969e-10, No Iterations 0
ExecutionTime = 777.19 s  ClockTime = 783 s

End

