/*---------------------------------------------------------------------------*\
| =========                 |                                                 |
| \\      /  F ield         | OpenFOAM: The Open Source CFD Toolbox           |
|  \\    /   O peration     | Version:  v1906                                 |
|   \\  /    A nd           | Web:      www.OpenFOAM.com                      |
|    \\/     M anipulation  |                                                 |
\*---------------------------------------------------------------------------*/
Build  : v1906 OPENFOAM=1906
Arch   : "LSB;label=32;scalar=64"
Exec   : chtMultiRegionFoam
Date   : Feb 20 2020
Time   : 11:57:24
Host   : LAPTOP-FK3MEHTI
PID    : 1684
I/O    : uncollated
Case   : /home/theodore_ong/GitHub_OpenFoam_workspace/OpenFoam_heatTrf_YouTube/chtMultiregionFoam/hot_sphere_in_oil
nProcs : 1
trapFpe: Floating point exception trapping enabled (FOAM_SIGFPE).
fileModificationChecking : Monitoring run-time modified files using timeStampMaster (fileModificationSkew 10)
allowSystemOperations : Allowing user-supplied system call operations

// * * * * * * * * * * * * * * * * * * * * * * * * * * * * * * * * * * * * * //
Create time

Create fluid mesh for region oil for time = 0

Create solid mesh for region sphere for time = 0

*** Reading fluid mesh thermophysical properties for region oil

    Adding to thermoFluid

Selecting thermodynamics package 
{
    type            heRhoThermo;
    mixture         pureMixture;
    transport       polynomial;
    thermo          hPolynomial;
    equationOfState icoPolynomial;
    specie          specie;
    energy          sensibleEnthalpy;
}

    Adding to rhoFluid

    Adding to UFluid

    Adding to phiFluid

    Adding to hRefFluid

    Adding to ghFluid

    Adding to ghfFluid

    Adding to turbulenceFluid

Selecting turbulence model type laminar
Selecting laminar stress model Stokes
    Adding to reactionFluid

Combustion model not active: combustionProperties not found
Selecting combustion model none
    Adding to radiationFluid

Selecting radiationModel none
    Adding to KFluid

    Adding to dpdtFluid

    Adding to fieldsFluid

    Adding to QdotFluid

    Adding MRF

No MRF models present

    Adding fvOptions

*** Reading solid mesh thermophysical properties for region sphere

    Adding to thermos

Selecting thermodynamics package 
{
    type            heSolidThermo;
    mixture         pureMixture;
    transport       polynomial;
    thermo          hPolynomial;
    equationOfState rhoConst;
    specie          specie;
    energy          sensibleEnthalpy;
}

    Adding to radiations

Selecting radiationModel none
    Adding fvOptions

Region: oil Courant Number mean: 0 max: 0
Region: sphere Diffusion Number mean: 0.00813352 max: 0.266235
deltaT = 0.001
Region: oil Courant Number mean: 0 max: 0
Region: sphere Diffusion Number mean: 0.00813352 max: 0.266235
deltaT = 0.0011976
Time = 0.0011976


Solving for fluid region oil
diagonal:  Solving for rho, Initial residual = 0, Final residual = 0, No Iterations 0
DILUPBiCGStab:  Solving for Ux, Initial residual = 1, Final residual = 4.04533e-08, No Iterations 2
DILUPBiCGStab:  Solving for Uy, Initial residual = 1, Final residual = 1.37786e-09, No Iterations 2
DILUPBiCGStab:  Solving for Uz, Initial residual = 1, Final residual = 3.87814e-08, No Iterations 2
DILUPBiCGStab:  Solving for h, Initial residual = 1, Final residual = 1.06578e-10, No Iterations 1
Min/max T:300 499.982
GAMG:  Solving for p_rgh, Initial residual = 0.95801, Final residual = 0.00547285, No Iterations 5
GAMG:  Solving for p_rgh, Initial residual = 0.212324, Final residual = 7.12669e-08, No Iterations 23
diagonal:  Solving for rho, Initial residual = 0, Final residual = 0, No Iterations 0
time step continuity errors (oil): sum local = 2.13679e-09, global = 2.13623e-09, cumulative = 2.13623e-09

Solving for solid region sphere
DICPCG:  Solving for h, Initial residual = 1, Final residual = 4.28598e-07, No Iterations 2
Min/max T:499.92 500
ExecutionTime = 0.3 s  ClockTime = 1 s

Region: oil Courant Number mean: 3.29125e-06 max: 0.000152534
Region: sphere Diffusion Number mean: 0.00974076 max: 0.318848
deltaT = 0.0014406
Time = 0.0026382


Solving for fluid region oil
diagonal:  Solving for rho, Initial residual = 0, Final residual = 0, No Iterations 0
DILUPBiCGStab:  Solving for Ux, Initial residual = 0.378115, Final residual = 2.00719e-09, No Iterations 2
DILUPBiCGStab:  Solving for Uy, Initial residual = 0.928615, Final residual = 2.1188e-09, No Iterations 2
DILUPBiCGStab:  Solving for Uz, Initial residual = 0.37808, Final residual = 1.93766e-09, No Iterations 2
DILUPBiCGStab:  Solving for h, Initial residual = 0.0305916, Final residual = 3.38197e-11, No Iterations 1
Min/max T:300 499.983
GAMG:  Solving for p_rgh, Initial residual = 0.844393, Final residual = 0.0046237, No Iterations 4
GAMG:  Solving for p_rgh, Initial residual = 0.0984469, Final residual = 8.18666e-08, No Iterations 21
diagonal:  Solving for rho, Initial residual = 0, Final residual = 0, No Iterations 0
time step continuity errors (oil): sum local = 1.79284e-09, global = 1.79269e-09, cumulative = 3.92892e-09

Solving for solid region sphere
DICPCG:  Solving for h, Initial residual = 0.243395, Final residual = 1.54466e-07, No Iterations 2
Min/max T:499.917 500
ExecutionTime = 0.41 s  ClockTime = 1 s

Region: oil Courant Number mean: 3.43141e-06 max: 0.000158212
Region: sphere Diffusion Number mean: 0.0117172 max: 0.383543
deltaT = 0.00173124
Time = 0.00436945


Solving for fluid region oil
diagonal:  Solving for rho, Initial residual = 0, Final residual = 0, No Iterations 0
DILUPBiCGStab:  Solving for Ux, Initial residual = 0.147509, Final residual = 2.09699e-09, No Iterations 2
DILUPBiCGStab:  Solving for Uy, Initial residual = 0.727026, Final residual = 3.26758e-10, No Iterations 2
DILUPBiCGStab:  Solving for Uz, Initial residual = 0.147758, Final residual = 2.09e-09, No Iterations 2
DILUPBiCGStab:  Solving for h, Initial residual = 0.197669, Final residual = 5.77935e-11, No Iterations 1
Min/max T:299.999 499.979
GAMG:  Solving for p_rgh, Initial residual = 0.543127, Final residual = 0.00347, No Iterations 4
GAMG:  Solving for p_rgh, Initial residual = 0.0197213, Final residual = 7.91775e-08, No Iterations 17
diagonal:  Solving for rho, Initial residual = 0, Final residual = 0, No Iterations 0
time step continuity errors (oil): sum local = 1.85373e-08, global = 1.85372e-08, cumulative = 2.24662e-08

Solving for solid region sphere
DICPCG:  Solving for h, Initial residual = 0.16384, Final residual = 1.90078e-07, No Iterations 2
Min/max T:499.913 500
ExecutionTime = 0.49 s  ClockTime = 1 s

Region: oil Courant Number mean: 4.45503e-06 max: 0.000249829
Region: sphere Diffusion Number mean: 0.0140812 max: 0.460925
deltaT = 0.00208118
Time = 0.00645062


Solving for fluid region oil
diagonal:  Solving for rho, Initial residual = 0, Final residual = 0, No Iterations 0
DILUPBiCGStab:  Solving for Ux, Initial residual = 0.162014, Final residual = 5.77103e-10, No Iterations 2
DILUPBiCGStab:  Solving for Uy, Initial residual = 0.121249, Final residual = 4.39558e-09, No Iterations 2
DILUPBiCGStab:  Solving for Uz, Initial residual = 0.161979, Final residual = 5.67999e-10, No Iterations 2
DILUPBiCGStab:  Solving for h, Initial residual = 0.0373109, Final residual = 2.89893e-11, No Iterations 1
Min/max T:299.999 499.974
GAMG:  Solving for p_rgh, Initial residual = 0.330472, Final residual = 0.00269671, No Iterations 6
GAMG:  Solving for p_rgh, Initial residual = 0.00690488, Final residual = 7.32732e-08, No Iterations 19
diagonal:  Solving for rho, Initial residual = 0, Final residual = 0, No Iterations 0
time step continuity errors (oil): sum local = 6.05205e-09, global = 6.05199e-09, cumulative = 2.85181e-08

Solving for solid region sphere
DICPCG:  Solving for h, Initial residual = 0.131455, Final residual = 2.80886e-07, No Iterations 2
Min/max T:499.908 500
ExecutionTime = 0.61 s  ClockTime = 1 s

Region: oil Courant Number mean: 4.60924e-06 max: 0.000219141
Region: sphere Diffusion Number mean: 0.0169274 max: 0.554093
deltaT = 0.0024814
Time = 0.00893202


Solving for fluid region oil
diagonal:  Solving for rho, Initial residual = 0, Final residual = 0, No Iterations 0
DILUPBiCGStab:  Solving for Ux, Initial residual = 0.191642, Final residual = 1.16512e-09, No Iterations 2
DILUPBiCGStab:  Solving for Uy, Initial residual = 0.110433, Final residual = 6.46562e-09, No Iterations 2
DILUPBiCGStab:  Solving for Uz, Initial residual = 0.191432, Final residual = 1.1937e-09, No Iterations 2
DILUPBiCGStab:  Solving for h, Initial residual = 0.0408191, Final residual = 3.08154e-11, No Iterations 1
Min/max T:299.999 499.97
GAMG:  Solving for p_rgh, Initial residual = 0.248231, Final residual = 0.00154541, No Iterations 6
GAMG:  Solving for p_rgh, Initial residual = 0.00366359, Final residual = 8.90422e-08, No Iterations 17
diagonal:  Solving for rho, Initial residual = 0, Final residual = 0, No Iterations 0
time step continuity errors (oil): sum local = 3.75022e-09, global = -3.75016e-09, cumulative = 2.4768e-08

Solving for solid region sphere
DICPCG:  Solving for h, Initial residual = 0.114266, Final residual = 4.33421e-07, No Iterations 2
Min/max T:499.903 500
ExecutionTime = 0.71 s  ClockTime = 1 s

Region: oil Courant Number mean: 5.02399e-06 max: 0.000250952
Region: sphere Diffusion Number mean: 0.0201827 max: 0.660651
deltaT = 0.00298544
Time = 0.0119175


Solving for fluid region oil
diagonal:  Solving for rho, Initial residual = 0, Final residual = 0, No Iterations 0
DILUPBiCGStab:  Solving for Ux, Initial residual = 0.0934653, Final residual = 1.25154e-09, No Iterations 2
DILUPBiCGStab:  Solving for Uy, Initial residual = 0.0684763, Final residual = 9.48838e-09, No Iterations 2
DILUPBiCGStab:  Solving for Uz, Initial residual = 0.093488, Final residual = 1.29124e-09, No Iterations 2
DILUPBiCGStab:  Solving for h, Initial residual = 0.0154718, Final residual = 2.89651e-11, No Iterations 1
Min/max T:299.998 499.964
GAMG:  Solving for p_rgh, Initial residual = 0.21056, Final residual = 0.0012316, No Iterations 7
GAMG:  Solving for p_rgh, Initial residual = 0.00305644, Final residual = 6.33678e-08, No Iterations 18
diagonal:  Solving for rho, Initial residual = 0, Final residual = 0, No Iterations 0
time step continuity errors (oil): sum local = 4.75315e-09, global = 4.75311e-09, cumulative = 2.95211e-08

Solving for solid region sphere
DICPCG:  Solving for h, Initial residual = 0.105679, Final residual = 7.22703e-07, No Iterations 2
Min/max T:499.897 500
ExecutionTime = 0.8 s  ClockTime = 1 s

Region: oil Courant Number mean: 5.88132e-06 max: 0.000289293
Region: sphere Diffusion Number mean: 0.0242824 max: 0.794849
deltaT = 0.00354873
Time = 0.0154662


Solving for fluid region oil
diagonal:  Solving for rho, Initial residual = 0, Final residual = 0, No Iterations 0
DILUPBiCGStab:  Solving for Ux, Initial residual = 0.0931292, Final residual = 2.017e-09, No Iterations 2
DILUPBiCGStab:  Solving for Uy, Initial residual = 0.0666676, Final residual = 1.52013e-08, No Iterations 2
DILUPBiCGStab:  Solving for Uz, Initial residual = 0.0930942, Final residual = 2.04899e-09, No Iterations 2
DILUPBiCGStab:  Solving for h, Initial residual = 0.0163382, Final residual = 3.57881e-11, No Iterations 1
Min/max T:299.997 499.959
GAMG:  Solving for p_rgh, Initial residual = 0.183255, Final residual = 0.0016481, No Iterations 6
GAMG:  Solving for p_rgh, Initial residual = 0.00353336, Final residual = 7.78649e-08, No Iterations 18
diagonal:  Solving for rho, Initial residual = 0, Final residual = 0, No Iterations 0
time step continuity errors (oil): sum local = 6.62079e-09, global = 6.62075e-09, cumulative = 3.61418e-08

Solving for solid region sphere
DICPCG:  Solving for h, Initial residual = 0.100106, Final residual = 4.30965e-09, No Iterations 3
Min/max T:499.891 500
ExecutionTime = 0.88 s  ClockTime = 1 s

Region: oil Courant Number mean: 6.65357e-06 max: 0.000327204
Region: sphere Diffusion Number mean: 0.028864 max: 0.944825
deltaT = 0.00429148
Time = 0.0197577


Solving for fluid region oil
diagonal:  Solving for rho, Initial residual = 0, Final residual = 0, No Iterations 0
DILUPBiCGStab:  Solving for Ux, Initial residual = 0.0309839, Final residual = 2.78958e-09, No Iterations 2
DILUPBiCGStab:  Solving for Uy, Initial residual = 0.0576086, Final residual = 1.9592e-08, No Iterations 2
DILUPBiCGStab:  Solving for Uz, Initial residual = 0.0310033, Final residual = 2.87802e-09, No Iterations 2
DILUPBiCGStab:  Solving for h, Initial residual = 0.0116291, Final residual = 4.39484e-11, No Iterations 1
Min/max T:299.997 499.953
GAMG:  Solving for p_rgh, Initial residual = 0.138211, Final residual = 0.00135737, No Iterations 3
GAMG:  Solving for p_rgh, Initial residual = 0.00266449, Final residual = 6.88711e-08, No Iterations 18
diagonal:  Solving for rho, Initial residual = 0, Final residual = 0, No Iterations 0
time step continuity errors (oil): sum local = 4.69077e-09, global = 4.69072e-09, cumulative = 4.08326e-08

Solving for solid region sphere
DICPCG:  Solving for h, Initial residual = 0.0991588, Final residual = 1.04565e-08, No Iterations 3
Min/max T:499.884 500
ExecutionTime = 0.97 s  ClockTime = 1 s

Region: oil Courant Number mean: 7.55558e-06 max: 0.000373902
Region: sphere Diffusion Number mean: 0.0349055 max: 1.14258
deltaT = 0.00514978
Time = 0.0249075


Solving for fluid region oil
diagonal:  Solving for rho, Initial residual = 0, Final residual = 0, No Iterations 0
DILUPBiCGStab:  Solving for Ux, Initial residual = 0.0403501, Final residual = 4.10051e-09, No Iterations 2
DILUPBiCGStab:  Solving for Uy, Initial residual = 0.0623871, Final residual = 3.10375e-08, No Iterations 2
DILUPBiCGStab:  Solving for Uz, Initial residual = 0.0403891, Final residual = 4.22362e-09, No Iterations 2
DILUPBiCGStab:  Solving for h, Initial residual = 0.0102383, Final residual = 5.67531e-11, No Iterations 1
Min/max T:299.996 499.946
GAMG:  Solving for p_rgh, Initial residual = 0.123871, Final residual = 0.000784523, No Iterations 6
GAMG:  Solving for p_rgh, Initial residual = 0.00196236, Final residual = 6.54761e-08, No Iterations 17
diagonal:  Solving for rho, Initial residual = 0, Final residual = 0, No Iterations 0
time step continuity errors (oil): sum local = 6.17853e-09, global = 6.17849e-09, cumulative = 4.7011e-08

Solving for solid region sphere
DICPCG:  Solving for h, Initial residual = 0.0993808, Final residual = 2.3936e-08, No Iterations 3
Min/max T:499.876 500
ExecutionTime = 1.07 s  ClockTime = 1 s

Region: oil Courant Number mean: 8.58945e-06 max: 0.000422121
Region: sphere Diffusion Number mean: 0.0418867 max: 1.37111
deltaT = 0.00625331
Time = 0.0311608


Solving for fluid region oil
diagonal:  Solving for rho, Initial residual = 0, Final residual = 0, No Iterations 0
DILUPBiCGStab:  Solving for Ux, Initial residual = 0.0303849, Final residual = 5.95866e-09, No Iterations 2
DILUPBiCGStab:  Solving for Uy, Initial residual = 0.0597823, Final residual = 4.31488e-08, No Iterations 2
DILUPBiCGStab:  Solving for Uz, Initial residual = 0.0304002, Final residual = 6.15161e-09, No Iterations 2
DILUPBiCGStab:  Solving for h, Initial residual = 0.00982332, Final residual = 7.80376e-11, No Iterations 1
Min/max T:299.995 499.939
GAMG:  Solving for p_rgh, Initial residual = 0.0998252, Final residual = 0.000974281, No Iterations 3
GAMG:  Solving for p_rgh, Initial residual = 0.00217474, Final residual = 6.80036e-08, No Iterations 17
diagonal:  Solving for rho, Initial residual = 0, Final residual = 0, No Iterations 0
time step continuity errors (oil): sum local = 7.96171e-09, global = 7.96166e-09, cumulative = 5.49727e-08

Solving for solid region sphere
DICPCG:  Solving for h, Initial residual = 0.101984, Final residual = 5.74029e-08, No Iterations 3
Min/max T:499.867 499.999
ExecutionTime = 1.15 s  ClockTime = 1 s

Region: oil Courant Number mean: 9.8618e-06 max: 0.000488478
Region: sphere Diffusion Number mean: 0.0508626 max: 1.66492
deltaT = 0.00734084
Time = 0.0385016


Solving for fluid region oil
diagonal:  Solving for rho, Initial residual = 0, Final residual = 0, No Iterations 0
DILUPBiCGStab:  Solving for Ux, Initial residual = 0.028004, Final residual = 7.97731e-09, No Iterations 2
DILUPBiCGStab:  Solving for Uy, Initial residual = 0.0614824, Final residual = 5.78255e-08, No Iterations 2
DILUPBiCGStab:  Solving for Uz, Initial residual = 0.0280541, Final residual = 8.22702e-09, No Iterations 2
DILUPBiCGStab:  Solving for h, Initial residual = 0.00907806, Final residual = 9.77246e-11, No Iterations 1
Min/max T:299.993 499.933
GAMG:  Solving for p_rgh, Initial residual = 0.0810038, Final residual = 0.000460066, No Iterations 3
GAMG:  Solving for p_rgh, Initial residual = 0.00155903, Final residual = 7.04421e-08, No Iterations 15
diagonal:  Solving for rho, Initial residual = 0, Final residual = 0, No Iterations 0
time step continuity errors (oil): sum local = 9.11579e-09, global = 9.11573e-09, cumulative = 6.40884e-08

Solving for solid region sphere
DICPCG:  Solving for h, Initial residual = 0.102545, Final residual = 1.12166e-07, No Iterations 3
Min/max T:499.857 499.999
ExecutionTime = 1.22 s  ClockTime = 1 s

Region: oil Courant Number mean: 1.09245e-05 max: 0.000559783
Region: sphere Diffusion Number mean: 0.0597086 max: 1.95449
deltaT = 0.00897213
Time = 0.0474737


Solving for fluid region oil
diagonal:  Solving for rho, Initial residual = 0, Final residual = 0, No Iterations 0
DILUPBiCGStab:  Solving for Ux, Initial residual = 0.0291209, Final residual = 1.0951e-08, No Iterations 2
DILUPBiCGStab:  Solving for Uy, Initial residual = 0.0629323, Final residual = 7.91449e-08, No Iterations 2
DILUPBiCGStab:  Solving for Uz, Initial residual = 0.0291828, Final residual = 1.12888e-08, No Iterations 2
DILUPBiCGStab:  Solving for h, Initial residual = 0.00901103, Final residual = 1.40557e-10, No Iterations 1
Min/max T:299.992 499.925
GAMG:  Solving for p_rgh, Initial residual = 0.0751227, Final residual = 0.000414145, No Iterations 3
GAMG:  Solving for p_rgh, Initial residual = 0.00162068, Final residual = 7.19616e-08, No Iterations 15
diagonal:  Solving for rho, Initial residual = 0, Final residual = 0, No Iterations 0
time step continuity errors (oil): sum local = 1.11408e-08, global = 1.11407e-08, cumulative = 7.52291e-08

Solving for solid region sphere
DICPCG:  Solving for h, Initial residual = 0.108236, Final residual = 2.72468e-07, No Iterations 3
Min/max T:499.846 499.998
ExecutionTime = 1.3 s  ClockTime = 2 s

Region: oil Courant Number mean: 1.25809e-05 max: 0.000668978
Region: sphere Diffusion Number mean: 0.0729776 max: 2.38883
deltaT = 0.0108947
Time = 0.0583685


Solving for fluid region oil
diagonal:  Solving for rho, Initial residual = 0, Final residual = 0, No Iterations 0
DILUPBiCGStab:  Solving for Ux, Initial residual = 0.0283183, Final residual = 1.42271e-08, No Iterations 2
DILUPBiCGStab:  Solving for Uy, Initial residual = 0.0626898, Final residual = 6.50362e-10, No Iterations 2
DILUPBiCGStab:  Solving for Uz, Initial residual = 0.0283834, Final residual = 1.4653e-08, No Iterations 2
DILUPBiCGStab:  Solving for h, Initial residual = 0.00889442, Final residual = 1.99017e-10, No Iterations 1
Min/max T:299.99 499.916
GAMG:  Solving for p_rgh, Initial residual = 0.0635623, Final residual = 0.000248826, No Iterations 3
GAMG:  Solving for p_rgh, Initial residual = 0.00149963, Final residual = 5.94757e-08, No Iterations 12
diagonal:  Solving for rho, Initial residual = 0, Final residual = 0, No Iterations 0
time step continuity errors (oil): sum local = 1.35455e-08, global = 1.35455e-08, cumulative = 8.87746e-08

Solving for solid region sphere
DICPCG:  Solving for h, Initial residual = 0.114327, Final residual = 6.33537e-07, No Iterations 3
Min/max T:499.834 499.997
ExecutionTime = 1.38 s  ClockTime = 2 s

Region: oil Courant Number mean: 1.43717e-05 max: 0.000795068
Region: sphere Diffusion Number mean: 0.0886163 max: 2.90075
deltaT = 0.0128756
Time = 0.0712441


Solving for fluid region oil
diagonal:  Solving for rho, Initial residual = 0, Final residual = 0, No Iterations 0
DILUPBiCGStab:  Solving for Ux, Initial residual = 0.027855, Final residual = 1.72355e-08, No Iterations 2
DILUPBiCGStab:  Solving for Uy, Initial residual = 0.0612489, Final residual = 8.48209e-10, No Iterations 2
DILUPBiCGStab:  Solving for Uz, Initial residual = 0.0279219, Final residual = 1.77326e-08, No Iterations 2
DILUPBiCGStab:  Solving for h, Initial residual = 0.00856874, Final residual = 2.6111e-10, No Iterations 1
Min/max T:299.987 499.906
GAMG:  Solving for p_rgh, Initial residual = 0.0522369, Final residual = 0.000240963, No Iterations 3
GAMG:  Solving for p_rgh, Initial residual = 0.00154526, Final residual = 6.48839e-08, No Iterations 11
diagonal:  Solving for rho, Initial residual = 0, Final residual = 0, No Iterations 0
time step continuity errors (oil): sum local = 1.5995e-08, global = 1.59949e-08, cumulative = 1.0477e-07

Solving for solid region sphere
DICPCG:  Solving for h, Initial residual = 0.118524, Final residual = 3.26957e-08, No Iterations 4
Min/max T:499.821 499.994
ExecutionTime = 1.46 s  ClockTime = 2 s

Region: oil Courant Number mean: 1.59745e-05 max: 0.000920655
Region: sphere Diffusion Number mean: 0.104729 max: 3.42818
deltaT = 0.0160945
Time = 0.0873385


Solving for fluid region oil
diagonal:  Solving for rho, Initial residual = 0, Final residual = 0, No Iterations 0
DILUPBiCGStab:  Solving for Ux, Initial residual = 0.0279494, Final residual = 2.20707e-08, No Iterations 2
DILUPBiCGStab:  Solving for Uy, Initial residual = 0.0601984, Final residual = 1.16403e-09, No Iterations 2
DILUPBiCGStab:  Solving for Uz, Initial residual = 0.0280099, Final residual = 2.26057e-08, No Iterations 2
DILUPBiCGStab:  Solving for h, Initial residual = 0.00878899, Final residual = 4.09213e-10, No Iterations 1
Min/max T:299.985 499.894
GAMG:  Solving for p_rgh, Initial residual = 0.0466898, Final residual = 0.000246436, No Iterations 3
GAMG:  Solving for p_rgh, Initial residual = 0.00176079, Final residual = 7.11972e-08, No Iterations 10
diagonal:  Solving for rho, Initial residual = 0, Final residual = 0, No Iterations 0
time step continuity errors (oil): sum local = 1.99828e-08, global = 1.99827e-08, cumulative = 1.24752e-07

Solving for solid region sphere
DICPCG:  Solving for h, Initial residual = 0.128392, Final residual = 1.11887e-07, No Iterations 4
Min/max T:499.806 499.991
ExecutionTime = 1.52 s  ClockTime = 2 s

Region: oil Courant Number mean: 1.87827e-05 max: 0.00112976
Region: sphere Diffusion Number mean: 0.130913 max: 4.28527
deltaT = 0.0187769
Time = 0.106115


Solving for fluid region oil
diagonal:  Solving for rho, Initial residual = 0, Final residual = 0, No Iterations 0
DILUPBiCGStab:  Solving for Ux, Initial residual = 0.0269349, Final residual = 2.62632e-08, No Iterations 2
DILUPBiCGStab:  Solving for Uy, Initial residual = 0.0570836, Final residual = 1.36934e-09, No Iterations 2
DILUPBiCGStab:  Solving for Uz, Initial residual = 0.0269894, Final residual = 2.67915e-08, No Iterations 2
DILUPBiCGStab:  Solving for h, Initial residual = 0.00838026, Final residual = 5.22022e-10, No Iterations 1
Min/max T:299.981 499.88
GAMG:  Solving for p_rgh, Initial residual = 0.0368347, Final residual = 0.000243824, No Iterations 3
GAMG:  Solving for p_rgh, Initial residual = 0.00184474, Final residual = 6.32666e-08, No Iterations 11
diagonal:  Solving for rho, Initial residual = 0, Final residual = 0, No Iterations 0
time step continuity errors (oil): sum local = 2.33e-08, global = 2.32999e-08, cumulative = 1.48052e-07

Solving for solid region sphere
DICPCG:  Solving for h, Initial residual = 0.132163, Final residual = 2.38211e-07, No Iterations 4
Min/max T:499.789 499.985
ExecutionTime = 1.6 s  ClockTime = 2 s

Region: oil Courant Number mean: 2.06605e-05 max: 0.00129476
Region: sphere Diffusion Number mean: 0.152733 max: 4.99954
deltaT = 0.0234711
Time = 0.129587


Solving for fluid region oil
diagonal:  Solving for rho, Initial residual = 0, Final residual = 0, No Iterations 0
DILUPBiCGStab:  Solving for Ux, Initial residual = 0.0271288, Final residual = 3.90373e-08, No Iterations 2
DILUPBiCGStab:  Solving for Uy, Initial residual = 0.055006, Final residual = 1.72134e-09, No Iterations 2
DILUPBiCGStab:  Solving for Uz, Initial residual = 0.0271808, Final residual = 3.9687e-08, No Iterations 2
DILUPBiCGStab:  Solving for h, Initial residual = 0.00862922, Final residual = 8.27353e-10, No Iterations 1
Min/max T:299.977 499.865
GAMG:  Solving for p_rgh, Initial residual = 0.0340258, Final residual = 0.000228865, No Iterations 3
GAMG:  Solving for p_rgh, Initial residual = 0.00214528, Final residual = 9.21997e-08, No Iterations 10
diagonal:  Solving for rho, Initial residual = 0, Final residual = 0, No Iterations 0
time step continuity errors (oil): sum local = 2.91017e-08, global = 2.91015e-08, cumulative = 1.77154e-07

Solving for solid region sphere
DICPCG:  Solving for h, Initial residual = 0.144186, Final residual = 7.25825e-07, No Iterations 4
Min/max T:499.77 499.977
ExecutionTime = 1.68 s  ClockTime = 2 s

Region: oil Courant Number mean: 2.43931e-05 max: 0.00161855
Region: sphere Diffusion Number mean: 0.190919 max: 6.2495
deltaT = 0.0234711
Time = 0.153058


Solving for fluid region oil
diagonal:  Solving for rho, Initial residual = 0, Final residual = 0, No Iterations 0
DILUPBiCGStab:  Solving for Ux, Initial residual = 0.0249302, Final residual = 3.99639e-08, No Iterations 2
DILUPBiCGStab:  Solving for Uy, Initial residual = 0.0496054, Final residual = 1.63526e-09, No Iterations 2
DILUPBiCGStab:  Solving for Uz, Initial residual = 0.0249962, Final residual = 4.06374e-08, No Iterations 2
DILUPBiCGStab:  Solving for h, Initial residual = 0.00708432, Final residual = 6.72796e-10, No Iterations 1
Min/max T:299.973 499.847
GAMG:  Solving for p_rgh, Initial residual = 0.0245499, Final residual = 0.000193525, No Iterations 3
GAMG:  Solving for p_rgh, Initial residual = 0.00207966, Final residual = 6.94817e-08, No Iterations 11
diagonal:  Solving for rho, Initial residual = 0, Final residual = 0, No Iterations 0
time step continuity errors (oil): sum local = 2.9088e-08, global = 2.90879e-08, cumulative = 2.06242e-07

Solving for solid region sphere
DICPCG:  Solving for h, Initial residual = 0.134519, Final residual = 6.49388e-07, No Iterations 4
Min/max T:499.748 499.968
ExecutionTime = 1.74 s  ClockTime = 2 s

Region: oil Courant Number mean: 2.31506e-05 max: 0.00164558
Region: sphere Diffusion Number mean: 0.190922 max: 6.2496
deltaT = 0.0234711
Time = 0.176529


Solving for fluid region oil
diagonal:  Solving for rho, Initial residual = 0, Final residual = 0, No Iterations 0
DILUPBiCGStab:  Solving for Ux, Initial residual = 0.0238441, Final residual = 4.1546e-08, No Iterations 2
DILUPBiCGStab:  Solving for Uy, Initial residual = 0.045182, Final residual = 1.55544e-09, No Iterations 2
DILUPBiCGStab:  Solving for Uz, Initial residual = 0.0239191, Final residual = 4.2227e-08, No Iterations 2
DILUPBiCGStab:  Solving for h, Initial residual = 0.00600817, Final residual = 5.66077e-10, No Iterations 1
Min/max T:299.969 499.83
GAMG:  Solving for p_rgh, Initial residual = 0.0203472, Final residual = 9.434e-05, No Iterations 3
GAMG:  Solving for p_rgh, Initial residual = 0.00195251, Final residual = 6.52449e-08, No Iterations 11
diagonal:  Solving for rho, Initial residual = 0, Final residual = 0, No Iterations 0
time step continuity errors (oil): sum local = 2.90746e-08, global = 2.90744e-08, cumulative = 2.35316e-07

Solving for solid region sphere
DICPCG:  Solving for h, Initial residual = 0.127344, Final residual = 6.94566e-07, No Iterations 4
Min/max T:499.727 499.958
ExecutionTime = 1.82 s  ClockTime = 2 s

Region: oil Courant Number mean: 2.20591e-05 max: 0.00166864
Region: sphere Diffusion Number mean: 0.190924 max: 6.24969
deltaT = 0.0234711
Time = 0.2


Solving for fluid region oil
diagonal:  Solving for rho, Initial residual = 0, Final residual = 0, No Iterations 0
DILUPBiCGStab:  Solving for Ux, Initial residual = 0.0225338, Final residual = 4.36233e-08, No Iterations 2
DILUPBiCGStab:  Solving for Uy, Initial residual = 0.0419143, Final residual = 1.48837e-09, No Iterations 2
DILUPBiCGStab:  Solving for Uz, Initial residual = 0.022606, Final residual = 4.42892e-08, No Iterations 2
DILUPBiCGStab:  Solving for h, Initial residual = 0.00521553, Final residual = 4.8834e-10, No Iterations 1
Min/max T:299.965 499.812
GAMG:  Solving for p_rgh, Initial residual = 0.0174319, Final residual = 0.00010538, No Iterations 3
GAMG:  Solving for p_rgh, Initial residual = 0.0019299, Final residual = 6.47306e-08, No Iterations 11
diagonal:  Solving for rho, Initial residual = 0, Final residual = 0, No Iterations 0
time step continuity errors (oil): sum local = 2.90612e-08, global = 2.90611e-08, cumulative = 2.64377e-07

Solving for solid region sphere
DICPCG:  Solving for h, Initial residual = 0.122253, Final residual = 7.05432e-07, No Iterations 4
Min/max T:499.707 499.947
ExecutionTime = 2 s  ClockTime = 2 s

Region: oil Courant Number mean: 2.10885e-05 max: 0.00168871
Region: sphere Diffusion Number mean: 0.190926 max: 6.24977
deltaT = 0.0285714
Time = 0.228571


Solving for fluid region oil
diagonal:  Solving for rho, Initial residual = 0, Final residual = 0, No Iterations 0
DILUPBiCGStab:  Solving for Ux, Initial residual = 0.0232946, Final residual = 7.40304e-08, No Iterations 2
DILUPBiCGStab:  Solving for Uy, Initial residual = 0.0415498, Final residual = 1.74269e-09, No Iterations 2
DILUPBiCGStab:  Solving for Uz, Initial residual = 0.023362, Final residual = 7.52873e-08, No Iterations 2
DILUPBiCGStab:  Solving for h, Initial residual = 0.00560262, Final residual = 7.73003e-10, No Iterations 1
Min/max T:299.96 499.795
GAMG:  Solving for p_rgh, Initial residual = 0.0198529, Final residual = 0.000122351, No Iterations 3
GAMG:  Solving for p_rgh, Initial residual = 0.00227719, Final residual = 8.77712e-08, No Iterations 10
diagonal:  Solving for rho, Initial residual = 0, Final residual = 0, No Iterations 0
time step continuity errors (oil): sum local = 3.5344e-08, global = 3.53438e-08, cumulative = 2.99721e-07

Solving for solid region sphere
DICPCG:  Solving for h, Initial residual = 0.136875, Final residual = 9.66689e-08, No Iterations 5
Min/max T:499.688 499.932
ExecutionTime = 2.08 s  ClockTime = 2 s

Region: oil Courant Number mean: 2.45712e-05 max: 0.00208386
Region: sphere Diffusion Number mean: 0.232418 max: 7.60795
deltaT = 0.0342857
Time = 0.262857


Solving for fluid region oil
diagonal:  Solving for rho, Initial residual = 0, Final residual = 0, No Iterations 0
DILUPBiCGStab:  Solving for Ux, Initial residual = 0.0237635, Final residual = 7.77477e-10, No Iterations 2
DILUPBiCGStab:  Solving for Uy, Initial residual = 0.0409746, Final residual = 1.93406e-09, No Iterations 2
DILUPBiCGStab:  Solving for Uz, Initial residual = 0.0238303, Final residual = 8.16218e-10, No Iterations 2
DILUPBiCGStab:  Solving for h, Initial residual = 0.00588199, Final residual = 1.16627e-09, No Iterations 1
Min/max T:299.955 499.774
GAMG:  Solving for p_rgh, Initial residual = 0.0193942, Final residual = 0.000173288, No Iterations 3
GAMG:  Solving for p_rgh, Initial residual = 0.00266844, Final residual = 7.62346e-08, No Iterations 11
diagonal:  Solving for rho, Initial residual = 0, Final residual = 0, No Iterations 0
time step continuity errors (oil): sum local = 4.23675e-08, global = 4.23673e-08, cumulative = 3.42088e-07

Solving for solid region sphere
DICPCG:  Solving for h, Initial residual = 0.151141, Final residual = 2.45935e-07, No Iterations 5
Min/max T:499.665 499.913
ExecutionTime = 2.16 s  ClockTime = 2 s

Region: oil Courant Number mean: 2.82784e-05 max: 0.0025316
Region: sphere Diffusion Number mean: 0.278907 max: 9.12968
deltaT = 0.0342857
Time = 0.297143


Solving for fluid region oil
diagonal:  Solving for rho, Initial residual = 0, Final residual = 0, No Iterations 0
DILUPBiCGStab:  Solving for Ux, Initial residual = 0.0230014, Final residual = 8.40281e-10, No Iterations 2
DILUPBiCGStab:  Solving for Uy, Initial residual = 0.0385951, Final residual = 1.82675e-09, No Iterations 2
DILUPBiCGStab:  Solving for Uz, Initial residual = 0.0230588, Final residual = 8.785e-10, No Iterations 2
DILUPBiCGStab:  Solving for h, Initial residual = 0.0051197, Final residual = 1.0151e-09, No Iterations 1
Min/max T:299.949 499.749
GAMG:  Solving for p_rgh, Initial residual = 0.0158927, Final residual = 9.26921e-05, No Iterations 3
GAMG:  Solving for p_rgh, Initial residual = 0.0026397, Final residual = 8.39799e-08, No Iterations 11
diagonal:  Solving for rho, Initial residual = 0, Final residual = 0, No Iterations 0
time step continuity errors (oil): sum local = 4.23394e-08, global = 4.23392e-08, cumulative = 3.84427e-07

Solving for solid region sphere
DICPCG:  Solving for h, Initial residual = 0.146774, Final residual = 2.24358e-07, No Iterations 5
Min/max T:499.639 499.893
ExecutionTime = 2.23 s  ClockTime = 2 s

Region: oil Courant Number mean: 2.72066e-05 max: 0.00255473
Region: sphere Diffusion Number mean: 0.278912 max: 9.12985
deltaT = 0.0342857
Time = 0.331429


Solving for fluid region oil
diagonal:  Solving for rho, Initial residual = 0, Final residual = 0, No Iterations 0
DILUPBiCGStab:  Solving for Ux, Initial residual = 0.0224489, Final residual = 8.56896e-10, No Iterations 2
DILUPBiCGStab:  Solving for Uy, Initial residual = 0.0363984, Final residual = 1.73161e-09, No Iterations 2
DILUPBiCGStab:  Solving for Uz, Initial residual = 0.0224981, Final residual = 8.96228e-10, No Iterations 2
DILUPBiCGStab:  Solving for h, Initial residual = 0.00453194, Final residual = 8.98343e-10, No Iterations 1
Min/max T:299.943 499.725
GAMG:  Solving for p_rgh, Initial residual = 0.0144594, Final residual = 9.7169e-05, No Iterations 3
GAMG:  Solving for p_rgh, Initial residual = 0.00263332, Final residual = 6.32805e-08, No Iterations 11
diagonal:  Solving for rho, Initial residual = 0, Final residual = 0, No Iterations 0
time step continuity errors (oil): sum local = 4.23113e-08, global = 4.23111e-08, cumulative = 4.26738e-07

Solving for solid region sphere
DICPCG:  Solving for h, Initial residual = 0.143116, Final residual = 2.34053e-07, No Iterations 5
Min/max T:499.614 499.872
ExecutionTime = 2.3 s  ClockTime = 3 s

Region: oil Courant Number mean: 2.62434e-05 max: 0.00257533
Region: sphere Diffusion Number mean: 0.278917 max: 9.13003
deltaT = 0.0342857
Time = 0.365714


Solving for fluid region oil
diagonal:  Solving for rho, Initial residual = 0, Final residual = 0, No Iterations 0
DILUPBiCGStab:  Solving for Ux, Initial residual = 0.0218797, Final residual = 8.6579e-10, No Iterations 2
DILUPBiCGStab:  Solving for Uy, Initial residual = 0.0343594, Final residual = 1.65556e-09, No Iterations 2
DILUPBiCGStab:  Solving for Uz, Initial residual = 0.0219237, Final residual = 9.06173e-10, No Iterations 2
DILUPBiCGStab:  Solving for h, Initial residual = 0.00406496, Final residual = 8.06429e-10, No Iterations 1
Min/max T:299.937 499.701
GAMG:  Solving for p_rgh, Initial residual = 0.0135352, Final residual = 9.23247e-05, No Iterations 3
GAMG:  Solving for p_rgh, Initial residual = 0.00258197, Final residual = 7.40828e-08, No Iterations 10
diagonal:  Solving for rho, Initial residual = 0, Final residual = 0, No Iterations 0
time step continuity errors (oil): sum local = 4.22838e-08, global = 4.22836e-08, cumulative = 4.69022e-07

Solving for solid region sphere
DICPCG:  Solving for h, Initial residual = 0.14069, Final residual = 2.38328e-07, No Iterations 5
Min/max T:499.589 499.851
ExecutionTime = 2.37 s  ClockTime = 3 s

Region: oil Courant Number mean: 2.53741e-05 max: 0.00259408
Region: sphere Diffusion Number mean: 0.278921 max: 9.13019
deltaT = 0.0342857
Time = 0.4


Solving for fluid region oil
diagonal:  Solving for rho, Initial residual = 0, Final residual = 0, No Iterations 0
DILUPBiCGStab:  Solving for Ux, Initial residual = 0.0214289, Final residual = 8.65283e-10, No Iterations 2
DILUPBiCGStab:  Solving for Uy, Initial residual = 0.0325321, Final residual = 1.59617e-09, No Iterations 2
DILUPBiCGStab:  Solving for Uz, Initial residual = 0.0214684, Final residual = 9.0671e-10, No Iterations 2
DILUPBiCGStab:  Solving for h, Initial residual = 0.00368499, Final residual = 7.32735e-10, No Iterations 1
Min/max T:299.932 499.676
GAMG:  Solving for p_rgh, Initial residual = 0.0128202, Final residual = 9.86158e-05, No Iterations 3
GAMG:  Solving for p_rgh, Initial residual = 0.00255043, Final residual = 8.93045e-08, No Iterations 10
diagonal:  Solving for rho, Initial residual = 0, Final residual = 0, No Iterations 0
time step continuity errors (oil): sum local = 4.22564e-08, global = 4.22562e-08, cumulative = 5.11278e-07

Solving for solid region sphere
DICPCG:  Solving for h, Initial residual = 0.139113, Final residual = 2.32169e-07, No Iterations 5
Min/max T:499.564 499.829
ExecutionTime = 2.53 s  ClockTime = 3 s

Region: oil Courant Number mean: 2.45803e-05 max: 0.00261133
Region: sphere Diffusion Number mean: 0.278926 max: 9.13034
deltaT = 0.04
Time = 0.44


Solving for fluid region oil
diagonal:  Solving for rho, Initial residual = 0, Final residual = 0, No Iterations 0
DILUPBiCGStab:  Solving for Ux, Initial residual = 0.0227881, Final residual = 8.49709e-10, No Iterations 2
DILUPBiCGStab:  Solving for Uy, Initial residual = 0.0323725, Final residual = 1.93225e-09, No Iterations 2
DILUPBiCGStab:  Solving for Uz, Initial residual = 0.0228259, Final residual = 9.06538e-10, No Iterations 2
DILUPBiCGStab:  Solving for h, Initial residual = 0.0039289, Final residual = 1.06496e-09, No Iterations 1
Min/max T:299.925 499.652
GAMG:  Solving for p_rgh, Initial residual = 0.0157619, Final residual = 2.62963e-05, No Iterations 4
GAMG:  Solving for p_rgh, Initial residual = 0.00280621, Final residual = 7.0971e-08, No Iterations 10
diagonal:  Solving for rho, Initial residual = 0, Final residual = 0, No Iterations 0
time step continuity errors (oil): sum local = 4.92418e-08, global = 4.92415e-08, cumulative = 5.6052e-07

Solving for solid region sphere
DICPCG:  Solving for h, Initial residual = 0.153218, Final residual = 5.15197e-07, No Iterations 5
Min/max T:499.54 499.804
ExecutionTime = 2.59 s  ClockTime = 3 s

Region: oil Courant Number mean: 2.78001e-05 max: 0.00307052
Region: sphere Diffusion Number mean: 0.32542 max: 10.6522
deltaT = 0.04
Time = 0.48


Solving for fluid region oil
diagonal:  Solving for rho, Initial residual = 0, Final residual = 0, No Iterations 0
DILUPBiCGStab:  Solving for Ux, Initial residual = 0.022414, Final residual = 8.74913e-10, No Iterations 2
DILUPBiCGStab:  Solving for Uy, Initial residual = 0.0308391, Final residual = 9.5156e-08, No Iterations 2
DILUPBiCGStab:  Solving for Uz, Initial residual = 0.0224455, Final residual = 9.31967e-10, No Iterations 2
DILUPBiCGStab:  Solving for h, Initial residual = 0.00357252, Final residual = 9.71832e-10, No Iterations 1
Min/max T:299.918 499.624
GAMG:  Solving for p_rgh, Initial residual = 0.0138717, Final residual = 0.00012137, No Iterations 3
GAMG:  Solving for p_rgh, Initial residual = 0.00292219, Final residual = 6.38289e-08, No Iterations 11
diagonal:  Solving for rho, Initial residual = 0, Final residual = 0, No Iterations 0
time step continuity errors (oil): sum local = 4.92048e-08, global = 4.92046e-08, cumulative = 6.09724e-07

Solving for solid region sphere
DICPCG:  Solving for h, Initial residual = 0.152018, Final residual = 4.69243e-07, No Iterations 5
Min/max T:499.512 499.777
ExecutionTime = 2.67 s  ClockTime = 3 s

Region: oil Courant Number mean: 2.69863e-05 max: 0.00308891
Region: sphere Diffusion Number mean: 0.325426 max: 10.6525
deltaT = 0.04
Time = 0.52


Solving for fluid region oil
diagonal:  Solving for rho, Initial residual = 0, Final residual = 0, No Iterations 0
DILUPBiCGStab:  Solving for Ux, Initial residual = 0.0222506, Final residual = 8.57169e-10, No Iterations 2
DILUPBiCGStab:  Solving for Uy, Initial residual = 0.0294465, Final residual = 8.97804e-08, No Iterations 2
DILUPBiCGStab:  Solving for Uz, Initial residual = 0.0222761, Final residual = 9.12728e-10, No Iterations 2
DILUPBiCGStab:  Solving for h, Initial residual = 0.00327517, Final residual = 8.93495e-10, No Iterations 1
Min/max T:299.912 499.597
GAMG:  Solving for p_rgh, Initial residual = 0.013251, Final residual = 0.000112155, No Iterations 3
GAMG:  Solving for p_rgh, Initial residual = 0.00291134, Final residual = 7.85895e-08, No Iterations 10
diagonal:  Solving for rho, Initial residual = 0, Final residual = 0, No Iterations 0
time step continuity errors (oil): sum local = 4.91675e-08, global = 4.91672e-08, cumulative = 6.58892e-07

Solving for solid region sphere
DICPCG:  Solving for h, Initial residual = 0.150589, Final residual = 4.83932e-07, No Iterations 5
Min/max T:499.484 499.751
ExecutionTime = 2.77 s  ClockTime = 3 s

Region: oil Courant Number mean: 2.62315e-05 max: 0.00310588
Region: sphere Diffusion Number mean: 0.325433 max: 10.6527
deltaT = 0.04
Time = 0.56


Solving for fluid region oil
diagonal:  Solving for rho, Initial residual = 0, Final residual = 0, No Iterations 0
DILUPBiCGStab:  Solving for Ux, Initial residual = 0.021987, Final residual = 8.36007e-10, No Iterations 2
DILUPBiCGStab:  Solving for Uy, Initial residual = 0.0281758, Final residual = 8.63713e-08, No Iterations 2
DILUPBiCGStab:  Solving for Uz, Initial residual = 0.0220074, Final residual = 8.91361e-10, No Iterations 2
DILUPBiCGStab:  Solving for h, Initial residual = 0.00302335, Final residual = 8.27167e-10, No Iterations 1
Min/max T:299.905 499.569
GAMG:  Solving for p_rgh, Initial residual = 0.0128469, Final residual = 0.000104166, No Iterations 3
GAMG:  Solving for p_rgh, Initial residual = 0.00286691, Final residual = 9.15807e-08, No Iterations 10
diagonal:  Solving for rho, Initial residual = 0, Final residual = 0, No Iterations 0
time step continuity errors (oil): sum local = 4.91307e-08, global = 4.91304e-08, cumulative = 7.08022e-07

Solving for solid region sphere
DICPCG:  Solving for h, Initial residual = 0.149635, Final residual = 5.04129e-07, No Iterations 5
Min/max T:499.456 499.724
ExecutionTime = 2.84 s  ClockTime = 3 s

Region: oil Courant Number mean: 2.5535e-05 max: 0.00312181
Region: sphere Diffusion Number mean: 0.325439 max: 10.6529
deltaT = 0.04
Time = 0.6


Solving for fluid region oil
diagonal:  Solving for rho, Initial residual = 0, Final residual = 0, No Iterations 0
DILUPBiCGStab:  Solving for Ux, Initial residual = 0.0218158, Final residual = 8.11285e-10, No Iterations 2
DILUPBiCGStab:  Solving for Uy, Initial residual = 0.0270791, Final residual = 8.45986e-08, No Iterations 2
DILUPBiCGStab:  Solving for Uz, Initial residual = 0.0218308, Final residual = 8.65595e-10, No Iterations 2
DILUPBiCGStab:  Solving for h, Initial residual = 0.00280733, Final residual = 7.70429e-10, No Iterations 1
Min/max T:299.898 499.542
GAMG:  Solving for p_rgh, Initial residual = 0.0125377, Final residual = 0.000106679, No Iterations 3
GAMG:  Solving for p_rgh, Initial residual = 0.00282995, Final residual = 7.5812e-08, No Iterations 9
diagonal:  Solving for rho, Initial residual = 0, Final residual = 0, No Iterations 0
time step continuity errors (oil): sum local = 4.9094e-08, global = 4.90938e-08, cumulative = 7.57116e-07

Solving for solid region sphere
DICPCG:  Solving for h, Initial residual = 0.149157, Final residual = 5.03849e-07, No Iterations 5
Min/max T:499.429 499.697
ExecutionTime = 3.04 s  ClockTime = 3 s

Region: oil Courant Number mean: 2.48899e-05 max: 0.00313687
Region: sphere Diffusion Number mean: 0.325445 max: 10.6531
deltaT = 0.04
Time = 0.64


Solving for fluid region oil
diagonal:  Solving for rho, Initial residual = 0, Final residual = 0, No Iterations 0
DILUPBiCGStab:  Solving for Ux, Initial residual = 0.0216485, Final residual = 7.88279e-10, No Iterations 2
DILUPBiCGStab:  Solving for Uy, Initial residual = 0.0261402, Final residual = 8.43043e-08, No Iterations 2
DILUPBiCGStab:  Solving for Uz, Initial residual = 0.0216655, Final residual = 8.4107e-10, No Iterations 2
DILUPBiCGStab:  Solving for h, Initial residual = 0.00261998, Final residual = 7.21379e-10, No Iterations 1
Min/max T:299.892 499.514
GAMG:  Solving for p_rgh, Initial residual = 0.0122661, Final residual = 0.000105575, No Iterations 3
GAMG:  Solving for p_rgh, Initial residual = 0.00280038, Final residual = 8.84631e-08, No Iterations 10
diagonal:  Solving for rho, Initial residual = 0, Final residual = 0, No Iterations 0
time step continuity errors (oil): sum local = 4.90575e-08, global = 4.90572e-08, cumulative = 8.06173e-07

Solving for solid region sphere
DICPCG:  Solving for h, Initial residual = 0.148875, Final residual = 4.92992e-07, No Iterations 5
Min/max T:499.401 499.67
ExecutionTime = 3.11 s  ClockTime = 3 s

Region: oil Courant Number mean: 2.4288e-05 max: 0.00315115
Region: sphere Diffusion Number mean: 0.325451 max: 10.6533
deltaT = 0.04
Time = 0.68


Solving for fluid region oil
diagonal:  Solving for rho, Initial residual = 0, Final residual = 0, No Iterations 0
DILUPBiCGStab:  Solving for Ux, Initial residual = 0.0215239, Final residual = 7.64688e-10, No Iterations 2
DILUPBiCGStab:  Solving for Uy, Initial residual = 0.0253459, Final residual = 8.52238e-08, No Iterations 2
DILUPBiCGStab:  Solving for Uz, Initial residual = 0.021541, Final residual = 8.16763e-10, No Iterations 2
DILUPBiCGStab:  Solving for h, Initial residual = 0.00245596, Final residual = 6.78527e-10, No Iterations 1
Min/max T:299.885 499.486
GAMG:  Solving for p_rgh, Initial residual = 0.0120337, Final residual = 0.000104718, No Iterations 3
GAMG:  Solving for p_rgh, Initial residual = 0.00277737, Final residual = 9.37638e-08, No Iterations 10
diagonal:  Solving for rho, Initial residual = 0, Final residual = 0, No Iterations 0
time step continuity errors (oil): sum local = 4.90211e-08, global = 4.90207e-08, cumulative = 8.55194e-07

Solving for solid region sphere
DICPCG:  Solving for h, Initial residual = 0.148613, Final residual = 4.86285e-07, No Iterations 5
Min/max T:499.374 499.643
ExecutionTime = 3.19 s  ClockTime = 3 s

Region: oil Courant Number mean: 2.37233e-05 max: 0.00316475
Region: sphere Diffusion Number mean: 0.325458 max: 10.6535
deltaT = 0.04
Time = 0.72


Solving for fluid region oil
diagonal:  Solving for rho, Initial residual = 0, Final residual = 0, No Iterations 0
DILUPBiCGStab:  Solving for Ux, Initial residual = 0.0214166, Final residual = 7.41635e-10, No Iterations 2
DILUPBiCGStab:  Solving for Uy, Initial residual = 0.0246562, Final residual = 8.70756e-08, No Iterations 2
DILUPBiCGStab:  Solving for Uz, Initial residual = 0.0214344, Final residual = 7.92179e-10, No Iterations 2
DILUPBiCGStab:  Solving for h, Initial residual = 0.00231115, Final residual = 6.40826e-10, No Iterations 1
Min/max T:299.879 499.459
GAMG:  Solving for p_rgh, Initial residual = 0.0118305, Final residual = 0.000102816, No Iterations 3
GAMG:  Solving for p_rgh, Initial residual = 0.00275344, Final residual = 9.05756e-08, No Iterations 10
diagonal:  Solving for rho, Initial residual = 0, Final residual = 0, No Iterations 0
time step continuity errors (oil): sum local = 4.89846e-08, global = 4.89843e-08, cumulative = 9.04178e-07

Solving for solid region sphere
DICPCG:  Solving for h, Initial residual = 0.148364, Final residual = 4.8607e-07, No Iterations 5
Min/max T:499.346 499.616
ExecutionTime = 3.28 s  ClockTime = 4 s

Region: oil Courant Number mean: 2.3191e-05 max: 0.00317776
Region: sphere Diffusion Number mean: 0.325464 max: 10.6537
deltaT = 0.04
Time = 0.76


Solving for fluid region oil
diagonal:  Solving for rho, Initial residual = 0, Final residual = 0, No Iterations 0
DILUPBiCGStab:  Solving for Ux, Initial residual = 0.0213314, Final residual = 7.19416e-10, No Iterations 2
DILUPBiCGStab:  Solving for Uy, Initial residual = 0.0240493, Final residual = 8.9638e-08, No Iterations 2
DILUPBiCGStab:  Solving for Uz, Initial residual = 0.0213527, Final residual = 7.67856e-10, No Iterations 2
DILUPBiCGStab:  Solving for h, Initial residual = 0.00218238, Final residual = 6.0729e-10, No Iterations 1
Min/max T:299.872 499.432
GAMG:  Solving for p_rgh, Initial residual = 0.011642, Final residual = 0.000100241, No Iterations 3
GAMG:  Solving for p_rgh, Initial residual = 0.00272624, Final residual = 9.26633e-08, No Iterations 10
diagonal:  Solving for rho, Initial residual = 0, Final residual = 0, No Iterations 0
time step continuity errors (oil): sum local = 4.89483e-08, global = 4.8948e-08, cumulative = 9.53126e-07

Solving for solid region sphere
DICPCG:  Solving for h, Initial residual = 0.148173, Final residual = 4.87496e-07, No Iterations 5
Min/max T:499.319 499.589
ExecutionTime = 3.36 s  ClockTime = 4 s

Region: oil Courant Number mean: 2.26874e-05 max: 0.00319022
Region: sphere Diffusion Number mean: 0.32547 max: 10.6539
deltaT = 0.04
Time = 0.8


Solving for fluid region oil
diagonal:  Solving for rho, Initial residual = 0, Final residual = 0, No Iterations 0
DILUPBiCGStab:  Solving for Ux, Initial residual = 0.0212624, Final residual = 6.97373e-10, No Iterations 2
DILUPBiCGStab:  Solving for Uy, Initial residual = 0.0235049, Final residual = 9.27842e-08, No Iterations 2
DILUPBiCGStab:  Solving for Uz, Initial residual = 0.0212872, Final residual = 7.44386e-10, No Iterations 2
DILUPBiCGStab:  Solving for h, Initial residual = 0.00206712, Final residual = 5.77246e-10, No Iterations 1
Min/max T:299.866 499.404
GAMG:  Solving for p_rgh, Initial residual = 0.0114659, Final residual = 9.7024e-05, No Iterations 3
GAMG:  Solving for p_rgh, Initial residual = 0.00269788, Final residual = 8.70799e-08, No Iterations 10
diagonal:  Solving for rho, Initial residual = 0, Final residual = 0, No Iterations 0
time step continuity errors (oil): sum local = 4.89121e-08, global = 4.89118e-08, cumulative = 1.00204e-06

Solving for solid region sphere
DICPCG:  Solving for h, Initial residual = 0.14805, Final residual = 4.87306e-07, No Iterations 5
Min/max T:499.292 499.562
ExecutionTime = 3.58 s  ClockTime = 4 s

Region: oil Courant Number mean: 2.22105e-05 max: 0.00320219
Region: sphere Diffusion Number mean: 0.325476 max: 10.6541
deltaT = 0.04
Time = 0.84


Solving for fluid region oil
diagonal:  Solving for rho, Initial residual = 0, Final residual = 0, No Iterations 0
DILUPBiCGStab:  Solving for Ux, Initial residual = 0.0212133, Final residual = 6.7606e-10, No Iterations 2
DILUPBiCGStab:  Solving for Uy, Initial residual = 0.0230036, Final residual = 9.64234e-08, No Iterations 2
DILUPBiCGStab:  Solving for Uz, Initial residual = 0.0212404, Final residual = 7.21111e-10, No Iterations 2
DILUPBiCGStab:  Solving for h, Initial residual = 0.00196334, Final residual = 5.50114e-10, No Iterations 1
Min/max T:299.86 499.377
GAMG:  Solving for p_rgh, Initial residual = 0.0113022, Final residual = 9.36763e-05, No Iterations 3
GAMG:  Solving for p_rgh, Initial residual = 0.00266997, Final residual = 8.5029e-08, No Iterations 10
diagonal:  Solving for rho, Initial residual = 0, Final residual = 0, No Iterations 0
time step continuity errors (oil): sum local = 4.8876e-08, global = 4.88757e-08, cumulative = 1.05091e-06

Solving for solid region sphere
DICPCG:  Solving for h, Initial residual = 0.147972, Final residual = 4.8603e-07, No Iterations 5
Min/max T:499.265 499.534
ExecutionTime = 3.65 s  ClockTime = 4 s

Region: oil Courant Number mean: 2.17567e-05 max: 0.00321374
Region: sphere Diffusion Number mean: 0.325482 max: 10.6543
deltaT = 0.04
Time = 0.88


Solving for fluid region oil
diagonal:  Solving for rho, Initial residual = 0, Final residual = 0, No Iterations 0
DILUPBiCGStab:  Solving for Ux, Initial residual = 0.021177, Final residual = 6.56531e-10, No Iterations 2
DILUPBiCGStab:  Solving for Uy, Initial residual = 0.0225386, Final residual = 1.51269e-09, No Iterations 2
DILUPBiCGStab:  Solving for Uz, Initial residual = 0.0212057, Final residual = 6.99181e-10, No Iterations 2
DILUPBiCGStab:  Solving for h, Initial residual = 0.00186942, Final residual = 5.25635e-10, No Iterations 1
Min/max T:299.853 499.35
GAMG:  Solving for p_rgh, Initial residual = 0.0111605, Final residual = 9.01916e-05, No Iterations 3
GAMG:  Solving for p_rgh, Initial residual = 0.00264352, Final residual = 7.27697e-08, No Iterations 10
diagonal:  Solving for rho, Initial residual = 0, Final residual = 0, No Iterations 0
time step continuity errors (oil): sum local = 4.88399e-08, global = 4.88396e-08, cumulative = 1.09975e-06

Solving for solid region sphere
DICPCG:  Solving for h, Initial residual = 0.147913, Final residual = 4.85095e-07, No Iterations 5
Min/max T:499.238 499.507
ExecutionTime = 3.72 s  ClockTime = 4 s

Region: oil Courant Number mean: 2.13251e-05 max: 0.00322491
Region: sphere Diffusion Number mean: 0.325489 max: 10.6545
deltaT = 0.04
Time = 0.92


Solving for fluid region oil
diagonal:  Solving for rho, Initial residual = 0, Final residual = 0, No Iterations 0
DILUPBiCGStab:  Solving for Ux, Initial residual = 0.0211531, Final residual = 6.37464e-10, No Iterations 2
DILUPBiCGStab:  Solving for Uy, Initial residual = 0.0221087, Final residual = 1.38437e-09, No Iterations 2
DILUPBiCGStab:  Solving for Uz, Initial residual = 0.0211836, Final residual = 6.77931e-10, No Iterations 2
DILUPBiCGStab:  Solving for h, Initial residual = 0.00178401, Final residual = 5.03495e-10, No Iterations 1
Min/max T:299.847 499.322
GAMG:  Solving for p_rgh, Initial residual = 0.0110212, Final residual = 8.69053e-05, No Iterations 3
GAMG:  Solving for p_rgh, Initial residual = 0.00261741, Final residual = 7.46079e-08, No Iterations 10
diagonal:  Solving for rho, Initial residual = 0, Final residual = 0, No Iterations 0
time step continuity errors (oil): sum local = 4.88039e-08, global = 4.88037e-08, cumulative = 1.14856e-06

Solving for solid region sphere
DICPCG:  Solving for h, Initial residual = 0.147865, Final residual = 4.84891e-07, No Iterations 5
Min/max T:499.21 499.48
ExecutionTime = 3.81 s  ClockTime = 4 s

Region: oil Courant Number mean: 2.09139e-05 max: 0.00323576
Region: sphere Diffusion Number mean: 0.325495 max: 10.6547
deltaT = 0.04
Time = 0.96


Solving for fluid region oil
diagonal:  Solving for rho, Initial residual = 0, Final residual = 0, No Iterations 0
DILUPBiCGStab:  Solving for Ux, Initial residual = 0.0211381, Final residual = 6.19489e-10, No Iterations 2
DILUPBiCGStab:  Solving for Uy, Initial residual = 0.0217063, Final residual = 1.26732e-09, No Iterations 2
DILUPBiCGStab:  Solving for Uz, Initial residual = 0.0211703, Final residual = 6.58105e-10, No Iterations 2
DILUPBiCGStab:  Solving for h, Initial residual = 0.001706, Final residual = 4.83323e-10, No Iterations 1
Min/max T:299.841 499.295
GAMG:  Solving for p_rgh, Initial residual = 0.0108858, Final residual = 8.36599e-05, No Iterations 3
GAMG:  Solving for p_rgh, Initial residual = 0.00259144, Final residual = 8.96207e-08, No Iterations 10
diagonal:  Solving for rho, Initial residual = 0, Final residual = 0, No Iterations 0
time step continuity errors (oil): sum local = 4.87681e-08, global = 4.87678e-08, cumulative = 1.19732e-06

Solving for solid region sphere
DICPCG:  Solving for h, Initial residual = 0.147829, Final residual = 4.84962e-07, No Iterations 5
Min/max T:499.183 499.453
ExecutionTime = 3.89 s  ClockTime = 4 s

Region: oil Courant Number mean: 2.05215e-05 max: 0.00324628
Region: sphere Diffusion Number mean: 0.325501 max: 10.6549
deltaT = 0.04
Time = 1


Solving for fluid region oil
diagonal:  Solving for rho, Initial residual = 0, Final residual = 0, No Iterations 0
DILUPBiCGStab:  Solving for Ux, Initial residual = 0.0211343, Final residual = 6.02558e-10, No Iterations 2
DILUPBiCGStab:  Solving for Uy, Initial residual = 0.0213332, Final residual = 1.16504e-09, No Iterations 2
DILUPBiCGStab:  Solving for Uz, Initial residual = 0.0211685, Final residual = 6.38934e-10, No Iterations 2
DILUPBiCGStab:  Solving for h, Initial residual = 0.00163448, Final residual = 4.64843e-10, No Iterations 1
Min/max T:299.834 499.268
GAMG:  Solving for p_rgh, Initial residual = 0.0107503, Final residual = 8.05384e-05, No Iterations 3
GAMG:  Solving for p_rgh, Initial residual = 0.00256554, Final residual = 9.03811e-08, No Iterations 10
diagonal:  Solving for rho, Initial residual = 0, Final residual = 0, No Iterations 0
time step continuity errors (oil): sum local = 4.87323e-08, global = 4.8732e-08, cumulative = 1.24606e-06

Solving for solid region sphere
DICPCG:  Solving for h, Initial residual = 0.147805, Final residual = 4.84931e-07, No Iterations 5
Min/max T:499.156 499.425
ExecutionTime = 4.1 s  ClockTime = 4 s

Region: oil Courant Number mean: 2.01475e-05 max: 0.0032565
Region: sphere Diffusion Number mean: 0.325507 max: 10.6551
deltaT = 0.04
Time = 1.04


Solving for fluid region oil
diagonal:  Solving for rho, Initial residual = 0, Final residual = 0, No Iterations 0
DILUPBiCGStab:  Solving for Ux, Initial residual = 0.0211404, Final residual = 5.8655e-10, No Iterations 2
DILUPBiCGStab:  Solving for Uy, Initial residual = 0.0209935, Final residual = 1.07844e-09, No Iterations 2
DILUPBiCGStab:  Solving for Uz, Initial residual = 0.021175, Final residual = 6.20156e-10, No Iterations 2
DILUPBiCGStab:  Solving for h, Initial residual = 0.00156866, Final residual = 4.47849e-10, No Iterations 1
Min/max T:299.828 499.241
GAMG:  Solving for p_rgh, Initial residual = 0.0106249, Final residual = 7.76732e-05, No Iterations 3
GAMG:  Solving for p_rgh, Initial residual = 0.00254038, Final residual = 9.58561e-08, No Iterations 10
diagonal:  Solving for rho, Initial residual = 0, Final residual = 0, No Iterations 0
time step continuity errors (oil): sum local = 4.86967e-08, global = 4.86963e-08, cumulative = 1.29475e-06

Solving for solid region sphere
DICPCG:  Solving for h, Initial residual = 0.14779, Final residual = 4.84798e-07, No Iterations 5
Min/max T:499.129 499.398
ExecutionTime = 4.17 s  ClockTime = 4 s

Region: oil Courant Number mean: 1.9789e-05 max: 0.00326647
Region: sphere Diffusion Number mean: 0.325513 max: 10.6553
deltaT = 0.04
Time = 1.08


Solving for fluid region oil
diagonal:  Solving for rho, Initial residual = 0, Final residual = 0, No Iterations 0
DILUPBiCGStab:  Solving for Ux, Initial residual = 0.0211538, Final residual = 5.71405e-10, No Iterations 2
DILUPBiCGStab:  Solving for Uy, Initial residual = 0.0206795, Final residual = 1.0063e-09, No Iterations 2
DILUPBiCGStab:  Solving for Uz, Initial residual = 0.0211875, Final residual = 6.02468e-10, No Iterations 2
DILUPBiCGStab:  Solving for h, Initial residual = 0.0015079, Final residual = 4.32113e-10, No Iterations 1
Min/max T:299.822 499.213
GAMG:  Solving for p_rgh, Initial residual = 0.0104986, Final residual = 7.51639e-05, No Iterations 3
GAMG:  Solving for p_rgh, Initial residual = 0.00251619, Final residual = 6.31265e-08, No Iterations 11
diagonal:  Solving for rho, Initial residual = 0, Final residual = 0, No Iterations 0
time step continuity errors (oil): sum local = 4.86609e-08, global = 4.86607e-08, cumulative = 1.34341e-06

Solving for solid region sphere
DICPCG:  Solving for h, Initial residual = 0.147782, Final residual = 4.847e-07, No Iterations 5
Min/max T:499.102 499.371
ExecutionTime = 4.25 s  ClockTime = 5 s

Region: oil Courant Number mean: 1.9444e-05 max: 0.0032762
Region: sphere Diffusion Number mean: 0.325519 max: 10.6555
deltaT = 0.04
Time = 1.12


Solving for fluid region oil
diagonal:  Solving for rho, Initial residual = 0, Final residual = 0, No Iterations 0
DILUPBiCGStab:  Solving for Ux, Initial residual = 0.0211772, Final residual = 5.57143e-10, No Iterations 2
DILUPBiCGStab:  Solving for Uy, Initial residual = 0.0203617, Final residual = 9.45185e-10, No Iterations 2
DILUPBiCGStab:  Solving for Uz, Initial residual = 0.0212088, Final residual = 5.8598e-10, No Iterations 2
DILUPBiCGStab:  Solving for h, Initial residual = 0.00145163, Final residual = 4.17503e-10, No Iterations 1
Min/max T:299.816 499.186
GAMG:  Solving for p_rgh, Initial residual = 0.0103719, Final residual = 7.2579e-05, No Iterations 3
GAMG:  Solving for p_rgh, Initial residual = 0.00249224, Final residual = 6.23514e-08, No Iterations 11
diagonal:  Solving for rho, Initial residual = 0, Final residual = 0, No Iterations 0
time step continuity errors (oil): sum local = 4.86254e-08, global = 4.86252e-08, cumulative = 1.39204e-06

Solving for solid region sphere
DICPCG:  Solving for h, Initial residual = 0.147777, Final residual = 4.8469e-07, No Iterations 5
Min/max T:499.075 499.344
ExecutionTime = 4.31 s  ClockTime = 5 s

Region: oil Courant Number mean: 1.91104e-05 max: 0.00328571
Region: sphere Diffusion Number mean: 0.325526 max: 10.6557
deltaT = 0.04
Time = 1.16


Solving for fluid region oil
diagonal:  Solving for rho, Initial residual = 0, Final residual = 0, No Iterations 0
DILUPBiCGStab:  Solving for Ux, Initial residual = 0.021207, Final residual = 5.4403e-10, No Iterations 2
DILUPBiCGStab:  Solving for Uy, Initial residual = 0.020061, Final residual = 8.95777e-10, No Iterations 2
DILUPBiCGStab:  Solving for Uz, Initial residual = 0.0212357, Final residual = 5.70392e-10, No Iterations 2
DILUPBiCGStab:  Solving for h, Initial residual = 0.00139936, Final residual = 4.03935e-10, No Iterations 1
Min/max T:299.81 499.159
GAMG:  Solving for p_rgh, Initial residual = 0.010255, Final residual = 7.03636e-05, No Iterations 3
GAMG:  Solving for p_rgh, Initial residual = 0.00246772, Final residual = 6.61432e-08, No Iterations 11
diagonal:  Solving for rho, Initial residual = 0, Final residual = 0, No Iterations 0
time step continuity errors (oil): sum local = 4.859e-08, global = 4.85897e-08, cumulative = 1.44063e-06

Solving for solid region sphere
DICPCG:  Solving for h, Initial residual = 0.147776, Final residual = 4.84728e-07, No Iterations 5
Min/max T:499.049 499.316
ExecutionTime = 4.39 s  ClockTime = 5 s

Region: oil Courant Number mean: 1.87879e-05 max: 0.00329503
Region: sphere Diffusion Number mean: 0.325532 max: 10.6559
deltaT = 0.04
Time = 1.2


Solving for fluid region oil
diagonal:  Solving for rho, Initial residual = 0, Final residual = 0, No Iterations 0
DILUPBiCGStab:  Solving for Ux, Initial residual = 0.0212426, Final residual = 5.31854e-10, No Iterations 2
DILUPBiCGStab:  Solving for Uy, Initial residual = 0.0197858, Final residual = 8.57327e-10, No Iterations 2
DILUPBiCGStab:  Solving for Uz, Initial residual = 0.0212695, Final residual = 5.55878e-10, No Iterations 2
DILUPBiCGStab:  Solving for h, Initial residual = 0.0013507, Final residual = 3.91306e-10, No Iterations 1
Min/max T:299.803 499.132
GAMG:  Solving for p_rgh, Initial residual = 0.0101357, Final residual = 6.80249e-05, No Iterations 3
GAMG:  Solving for p_rgh, Initial residual = 0.00244225, Final residual = 9.26119e-08, No Iterations 10
diagonal:  Solving for rho, Initial residual = 0, Final residual = 0, No Iterations 0
time step continuity errors (oil): sum local = 4.85547e-08, global = 4.85543e-08, cumulative = 1.48918e-06

Solving for solid region sphere
DICPCG:  Solving for h, Initial residual = 0.147777, Final residual = 4.84769e-07, No Iterations 5
Min/max T:499.022 499.289
ExecutionTime = 4.58 s  ClockTime = 5 s

Region: oil Courant Number mean: 1.84772e-05 max: 0.00330416
Region: sphere Diffusion Number mean: 0.325538 max: 10.6561
deltaT = 0.04
Time = 1.24


Solving for fluid region oil
diagonal:  Solving for rho, Initial residual = 0, Final residual = 0, No Iterations 0
DILUPBiCGStab:  Solving for Ux, Initial residual = 0.0212843, Final residual = 5.1997e-10, No Iterations 2
DILUPBiCGStab:  Solving for Uy, Initial residual = 0.0195321, Final residual = 8.28743e-10, No Iterations 2
DILUPBiCGStab:  Solving for Uz, Initial residual = 0.02131, Final residual = 5.41987e-10, No Iterations 2
DILUPBiCGStab:  Solving for h, Initial residual = 0.00130527, Final residual = 3.79507e-10, No Iterations 1
Min/max T:299.797 499.105
GAMG:  Solving for p_rgh, Initial residual = 0.010016, Final residual = 6.60773e-05, No Iterations 3
GAMG:  Solving for p_rgh, Initial residual = 0.00241592, Final residual = 9.43573e-08, No Iterations 10
diagonal:  Solving for rho, Initial residual = 0, Final residual = 0, No Iterations 0
time step continuity errors (oil): sum local = 4.85194e-08, global = 4.8519e-08, cumulative = 1.5377e-06

Solving for solid region sphere
DICPCG:  Solving for h, Initial residual = 0.14778, Final residual = 4.84804e-07, No Iterations 5
Min/max T:498.995 499.262
ExecutionTime = 4.66 s  ClockTime = 5 s

Region: oil Courant Number mean: 1.81777e-05 max: 0.00331313
Region: sphere Diffusion Number mean: 0.325544 max: 10.6563
deltaT = 0.04
Time = 1.28


Solving for fluid region oil
diagonal:  Solving for rho, Initial residual = 0, Final residual = 0, No Iterations 0
DILUPBiCGStab:  Solving for Ux, Initial residual = 0.0213316, Final residual = 5.09394e-10, No Iterations 2
DILUPBiCGStab:  Solving for Uy, Initial residual = 0.0193019, Final residual = 8.07789e-10, No Iterations 2
DILUPBiCGStab:  Solving for Uz, Initial residual = 0.021356, Final residual = 5.29306e-10, No Iterations 2
DILUPBiCGStab:  Solving for h, Initial residual = 0.00126276, Final residual = 3.68436e-10, No Iterations 1
Min/max T:299.791 499.078
GAMG:  Solving for p_rgh, Initial residual = 0.00989587, Final residual = 6.4199e-05, No Iterations 3
GAMG:  Solving for p_rgh, Initial residual = 0.00239011, Final residual = 9.69391e-08, No Iterations 10
diagonal:  Solving for rho, Initial residual = 0, Final residual = 0, No Iterations 0
time step continuity errors (oil): sum local = 4.84842e-08, global = 4.84838e-08, cumulative = 1.58619e-06

Solving for solid region sphere
DICPCG:  Solving for h, Initial residual = 0.147784, Final residual = 4.84845e-07, No Iterations 5
Min/max T:498.968 499.235
ExecutionTime = 4.72 s  ClockTime = 5 s

Region: oil Courant Number mean: 1.78885e-05 max: 0.00332195
Region: sphere Diffusion Number mean: 0.32555 max: 10.6565
deltaT = 0.04
Time = 1.32


Solving for fluid region oil
diagonal:  Solving for rho, Initial residual = 0, Final residual = 0, No Iterations 0
DILUPBiCGStab:  Solving for Ux, Initial residual = 0.0213845, Final residual = 4.99373e-10, No Iterations 2
DILUPBiCGStab:  Solving for Uy, Initial residual = 0.0190971, Final residual = 7.93405e-10, No Iterations 2
DILUPBiCGStab:  Solving for Uz, Initial residual = 0.0214066, Final residual = 5.17442e-10, No Iterations 2
DILUPBiCGStab:  Solving for h, Initial residual = 0.00122291, Final residual = 3.58045e-10, No Iterations 1
Min/max T:299.785 499.051
GAMG:  Solving for p_rgh, Initial residual = 0.00977724, Final residual = 6.23765e-05, No Iterations 3
GAMG:  Solving for p_rgh, Initial residual = 0.00236331, Final residual = 9.29702e-08, No Iterations 10
diagonal:  Solving for rho, Initial residual = 0, Final residual = 0, No Iterations 0
time step continuity errors (oil): sum local = 4.8449e-08, global = 4.84487e-08, cumulative = 1.63463e-06

Solving for solid region sphere
DICPCG:  Solving for h, Initial residual = 0.14779, Final residual = 4.84898e-07, No Iterations 5
Min/max T:498.941 499.208
ExecutionTime = 4.8 s  ClockTime = 5 s

Region: oil Courant Number mean: 1.76085e-05 max: 0.00333063
Region: sphere Diffusion Number mean: 0.325556 max: 10.6567
deltaT = 0.04
Time = 1.36


Solving for fluid region oil
diagonal:  Solving for rho, Initial residual = 0, Final residual = 0, No Iterations 0
DILUPBiCGStab:  Solving for Ux, Initial residual = 0.0214403, Final residual = 4.89994e-10, No Iterations 2
DILUPBiCGStab:  Solving for Uy, Initial residual = 0.0189126, Final residual = 7.84298e-10, No Iterations 2
DILUPBiCGStab:  Solving for Uz, Initial residual = 0.0214623, Final residual = 5.06094e-10, No Iterations 2
DILUPBiCGStab:  Solving for h, Initial residual = 0.00118546, Final residual = 3.48299e-10, No Iterations 1
Min/max T:299.779 499.024
GAMG:  Solving for p_rgh, Initial residual = 0.00965415, Final residual = 6.07623e-05, No Iterations 3
GAMG:  Solving for p_rgh, Initial residual = 0.00233649, Final residual = 9.70037e-08, No Iterations 10
diagonal:  Solving for rho, Initial residual = 0, Final residual = 0, No Iterations 0
time step continuity errors (oil): sum local = 4.8414e-08, global = 4.84136e-08, cumulative = 1.68305e-06

Solving for solid region sphere
DICPCG:  Solving for h, Initial residual = 0.147797, Final residual = 4.8496e-07, No Iterations 5
Min/max T:498.914 499.181
ExecutionTime = 4.88 s  ClockTime = 5 s

Region: oil Courant Number mean: 1.73362e-05 max: 0.00333917
Region: sphere Diffusion Number mean: 0.325562 max: 10.6569
deltaT = 0.04
Time = 1.4


Solving for fluid region oil
diagonal:  Solving for rho, Initial residual = 0, Final residual = 0, No Iterations 0
DILUPBiCGStab:  Solving for Ux, Initial residual = 0.0214991, Final residual = 4.81398e-10, No Iterations 2
DILUPBiCGStab:  Solving for Uy, Initial residual = 0.0187435, Final residual = 7.79395e-10, No Iterations 2
DILUPBiCGStab:  Solving for Uz, Initial residual = 0.0215232, Final residual = 4.95484e-10, No Iterations 2
DILUPBiCGStab:  Solving for h, Initial residual = 0.00115022, Final residual = 3.3914e-10, No Iterations 1
Min/max T:299.773 498.997
GAMG:  Solving for p_rgh, Initial residual = 0.00953022, Final residual = 5.91205e-05, No Iterations 3
GAMG:  Solving for p_rgh, Initial residual = 0.00230831, Final residual = 9.64953e-08, No Iterations 10
diagonal:  Solving for rho, Initial residual = 0, Final residual = 0, No Iterations 0
time step continuity errors (oil): sum local = 4.8379e-08, global = 4.83786e-08, cumulative = 1.73143e-06

Solving for solid region sphere
DICPCG:  Solving for h, Initial residual = 0.147804, Final residual = 4.85024e-07, No Iterations 5
Min/max T:498.887 499.154
ExecutionTime = 5.08 s  ClockTime = 5 s

Region: oil Courant Number mean: 1.70723e-05 max: 0.0033476
Region: sphere Diffusion Number mean: 0.325568 max: 10.6571
deltaT = 0.04
Time = 1.44


Solving for fluid region oil
diagonal:  Solving for rho, Initial residual = 0, Final residual = 0, No Iterations 0
DILUPBiCGStab:  Solving for Ux, Initial residual = 0.0215602, Final residual = 4.73564e-10, No Iterations 2
DILUPBiCGStab:  Solving for Uy, Initial residual = 0.0185836, Final residual = 7.77579e-10, No Iterations 2
DILUPBiCGStab:  Solving for Uz, Initial residual = 0.0215871, Final residual = 4.85989e-10, No Iterations 2
DILUPBiCGStab:  Solving for h, Initial residual = 0.00111698, Final residual = 3.30499e-10, No Iterations 1
Min/max T:299.767 498.97
GAMG:  Solving for p_rgh, Initial residual = 0.00940387, Final residual = 5.76685e-05, No Iterations 3
GAMG:  Solving for p_rgh, Initial residual = 0.00227904, Final residual = 9.40137e-08, No Iterations 10
diagonal:  Solving for rho, Initial residual = 0, Final residual = 0, No Iterations 0
time step continuity errors (oil): sum local = 4.83441e-08, global = 4.83437e-08, cumulative = 1.77977e-06

Solving for solid region sphere
DICPCG:  Solving for h, Initial residual = 0.147812, Final residual = 4.8509e-07, No Iterations 5
Min/max T:498.861 499.127
ExecutionTime = 5.16 s  ClockTime = 5 s

Region: oil Courant Number mean: 1.68174e-05 max: 0.00335591
Region: sphere Diffusion Number mean: 0.325575 max: 10.6573
deltaT = 0.04
Time = 1.48


Solving for fluid region oil
diagonal:  Solving for rho, Initial residual = 0, Final residual = 0, No Iterations 0
DILUPBiCGStab:  Solving for Ux, Initial residual = 0.0216252, Final residual = 4.66219e-10, No Iterations 2
DILUPBiCGStab:  Solving for Uy, Initial residual = 0.0184362, Final residual = 7.78004e-10, No Iterations 2
DILUPBiCGStab:  Solving for Uz, Initial residual = 0.0216564, Final residual = 4.76878e-10, No Iterations 2
DILUPBiCGStab:  Solving for h, Initial residual = 0.00108559, Final residual = 3.22338e-10, No Iterations 1
Min/max T:299.761 498.943
GAMG:  Solving for p_rgh, Initial residual = 0.00927611, Final residual = 5.61485e-05, No Iterations 3
GAMG:  Solving for p_rgh, Initial residual = 0.00225053, Final residual = 9.32981e-08, No Iterations 10
diagonal:  Solving for rho, Initial residual = 0, Final residual = 0, No Iterations 0
time step continuity errors (oil): sum local = 4.83093e-08, global = 4.83089e-08, cumulative = 1.82808e-06

Solving for solid region sphere
DICPCG:  Solving for h, Initial residual = 0.14782, Final residual = 4.85157e-07, No Iterations 5
Min/max T:498.834 499.1
ExecutionTime = 5.24 s  ClockTime = 6 s

Region: oil Courant Number mean: 1.65701e-05 max: 0.00336412
Region: sphere Diffusion Number mean: 0.325581 max: 10.6575
deltaT = 0.04
Time = 1.52


Solving for fluid region oil
diagonal:  Solving for rho, Initial residual = 0, Final residual = 0, No Iterations 0
DILUPBiCGStab:  Solving for Ux, Initial residual = 0.0216936, Final residual = 4.59548e-10, No Iterations 2
DILUPBiCGStab:  Solving for Uy, Initial residual = 0.0182991, Final residual = 7.80293e-10, No Iterations 2
DILUPBiCGStab:  Solving for Uz, Initial residual = 0.0217284, Final residual = 4.68574e-10, No Iterations 2
DILUPBiCGStab:  Solving for h, Initial residual = 0.00105589, Final residual = 3.146e-10, No Iterations 1
Min/max T:299.755 498.916
GAMG:  Solving for p_rgh, Initial residual = 0.00915406, Final residual = 5.4896e-05, No Iterations 3
GAMG:  Solving for p_rgh, Initial residual = 0.00222294, Final residual = 8.54264e-08, No Iterations 10
diagonal:  Solving for rho, Initial residual = 0, Final residual = 0, No Iterations 0
time step continuity errors (oil): sum local = 4.82745e-08, global = 4.82742e-08, cumulative = 1.87635e-06

Solving for solid region sphere
DICPCG:  Solving for h, Initial residual = 0.147828, Final residual = 4.85226e-07, No Iterations 5
Min/max T:498.807 499.073
ExecutionTime = 5.32 s  ClockTime = 6 s

Region: oil Courant Number mean: 1.63306e-05 max: 0.00337223
Region: sphere Diffusion Number mean: 0.325587 max: 10.6577
deltaT = 0.04
Time = 1.56


Solving for fluid region oil
diagonal:  Solving for rho, Initial residual = 0, Final residual = 0, No Iterations 0
DILUPBiCGStab:  Solving for Ux, Initial residual = 0.0217653, Final residual = 4.53255e-10, No Iterations 2
DILUPBiCGStab:  Solving for Uy, Initial residual = 0.0181707, Final residual = 7.83677e-10, No Iterations 2
DILUPBiCGStab:  Solving for Uz, Initial residual = 0.021803, Final residual = 4.61036e-10, No Iterations 2
DILUPBiCGStab:  Solving for h, Initial residual = 0.00102775, Final residual = 3.07253e-10, No Iterations 1
Min/max T:299.749 498.889
GAMG:  Solving for p_rgh, Initial residual = 0.00903329, Final residual = 5.36163e-05, No Iterations 3
GAMG:  Solving for p_rgh, Initial residual = 0.00219514, Final residual = 9.01971e-08, No Iterations 10
diagonal:  Solving for rho, Initial residual = 0, Final residual = 0, No Iterations 0
time step continuity errors (oil): sum local = 4.82398e-08, global = 4.82395e-08, cumulative = 1.92459e-06

Solving for solid region sphere
DICPCG:  Solving for h, Initial residual = 0.147837, Final residual = 4.85297e-07, No Iterations 5
Min/max T:498.78 499.046
ExecutionTime = 5.38 s  ClockTime = 6 s

Region: oil Courant Number mean: 1.60975e-05 max: 0.00338024
Region: sphere Diffusion Number mean: 0.325593 max: 10.6579
deltaT = 0.04
Time = 1.6


Solving for fluid region oil
diagonal:  Solving for rho, Initial residual = 0, Final residual = 0, No Iterations 0
DILUPBiCGStab:  Solving for Ux, Initial residual = 0.0218407, Final residual = 4.47752e-10, No Iterations 2
DILUPBiCGStab:  Solving for Uy, Initial residual = 0.0180512, Final residual = 7.88063e-10, No Iterations 2
DILUPBiCGStab:  Solving for Uz, Initial residual = 0.0218809, Final residual = 4.5419e-10, No Iterations 2
DILUPBiCGStab:  Solving for h, Initial residual = 0.00100106, Final residual = 3.00274e-10, No Iterations 1
Min/max T:299.743 498.862
GAMG:  Solving for p_rgh, Initial residual = 0.0089137, Final residual = 5.24373e-05, No Iterations 3
GAMG:  Solving for p_rgh, Initial residual = 0.00216813, Final residual = 8.48889e-08, No Iterations 10
diagonal:  Solving for rho, Initial residual = 0, Final residual = 0, No Iterations 0
time step continuity errors (oil): sum local = 4.82052e-08, global = 4.82049e-08, cumulative = 1.9728e-06

Solving for solid region sphere
DICPCG:  Solving for h, Initial residual = 0.147846, Final residual = 4.85368e-07, No Iterations 5
Min/max T:498.754 499.019
ExecutionTime = 5.57 s  ClockTime = 6 s

Region: oil Courant Number mean: 1.58701e-05 max: 0.00338817
Region: sphere Diffusion Number mean: 0.325599 max: 10.6581
deltaT = 0.04
Time = 1.64


Solving for fluid region oil
diagonal:  Solving for rho, Initial residual = 0, Final residual = 0, No Iterations 0
DILUPBiCGStab:  Solving for Ux, Initial residual = 0.021917, Final residual = 4.42521e-10, No Iterations 2
DILUPBiCGStab:  Solving for Uy, Initial residual = 0.0179423, Final residual = 7.93333e-10, No Iterations 2
DILUPBiCGStab:  Solving for Uz, Initial residual = 0.0219614, Final residual = 4.47717e-10, No Iterations 2
DILUPBiCGStab:  Solving for h, Initial residual = 0.000975693, Final residual = 2.93638e-10, No Iterations 1
Min/max T:299.737 498.835
GAMG:  Solving for p_rgh, Initial residual = 0.0087952, Final residual = 5.13329e-05, No Iterations 3
GAMG:  Solving for p_rgh, Initial residual = 0.00214156, Final residual = 8.5508e-08, No Iterations 10
diagonal:  Solving for rho, Initial residual = 0, Final residual = 0, No Iterations 0
time step continuity errors (oil): sum local = 4.81707e-08, global = 4.81704e-08, cumulative = 2.02097e-06

Solving for solid region sphere
DICPCG:  Solving for h, Initial residual = 0.147855, Final residual = 4.8544e-07, No Iterations 5
Min/max T:498.727 498.992
ExecutionTime = 5.64 s  ClockTime = 6 s

Region: oil Courant Number mean: 1.56487e-05 max: 0.00339602
Region: sphere Diffusion Number mean: 0.325605 max: 10.6583
deltaT = 0.04
Time = 1.68


Solving for fluid region oil
diagonal:  Solving for rho, Initial residual = 0, Final residual = 0, No Iterations 0
DILUPBiCGStab:  Solving for Ux, Initial residual = 0.0219942, Final residual = 4.37578e-10, No Iterations 2
DILUPBiCGStab:  Solving for Uy, Initial residual = 0.0178405, Final residual = 7.99075e-10, No Iterations 2
DILUPBiCGStab:  Solving for Uz, Initial residual = 0.0220423, Final residual = 4.41465e-10, No Iterations 2
DILUPBiCGStab:  Solving for h, Initial residual = 0.000951565, Final residual = 2.87317e-10, No Iterations 1
Min/max T:299.731 498.808
GAMG:  Solving for p_rgh, Initial residual = 0.00867922, Final residual = 5.03334e-05, No Iterations 3
GAMG:  Solving for p_rgh, Initial residual = 0.00211549, Final residual = 8.16798e-08, No Iterations 10
diagonal:  Solving for rho, Initial residual = 0, Final residual = 0, No Iterations 0
time step continuity errors (oil): sum local = 4.81362e-08, global = 4.81359e-08, cumulative = 2.0691e-06

Solving for solid region sphere
DICPCG:  Solving for h, Initial residual = 0.147864, Final residual = 4.85513e-07, No Iterations 5
Min/max T:498.7 498.965
ExecutionTime = 5.72 s  ClockTime = 6 s

Region: oil Courant Number mean: 1.54328e-05 max: 0.00340379
Region: sphere Diffusion Number mean: 0.325611 max: 10.6585
deltaT = 0.04
Time = 1.72


Solving for fluid region oil
diagonal:  Solving for rho, Initial residual = 0, Final residual = 0, No Iterations 0
DILUPBiCGStab:  Solving for Ux, Initial residual = 0.0220726, Final residual = 4.33154e-10, No Iterations 2
DILUPBiCGStab:  Solving for Uy, Initial residual = 0.0177457, Final residual = 8.04975e-10, No Iterations 2
DILUPBiCGStab:  Solving for Uz, Initial residual = 0.0221243, Final residual = 4.3582e-10, No Iterations 2
[...]

Region: oil Courant Number mean: 0.0016125 max: 0.0400146
Region: sphere Diffusion Number mean: 0.280623 max: 9.18579
deltaT = 0.0333333
Time = 99.5333


Solving for fluid region oil
diagonal:  Solving for rho, Initial residual = 0, Final residual = 0, No Iterations 0
DILUPBiCGStab:  Solving for Ux, Initial residual = 0.000329617, Final residual = 6.2125e-08, No Iterations 1
DILUPBiCGStab:  Solving for Uy, Initial residual = 0.000176585, Final residual = 2.49883e-08, No Iterations 1
DILUPBiCGStab:  Solving for Uz, Initial residual = 0.000329597, Final residual = 6.21034e-08, No Iterations 1
DILUPBiCGStab:  Solving for h, Initial residual = 5.49781e-05, Final residual = 2.22821e-10, No Iterations 1
Min/max T:300 449.475
GAMG:  Solving for p_rgh, Initial residual = 0.000788667, Final residual = 3.7308e-06, No Iterations 4
GAMG:  Solving for p_rgh, Initial residual = 1.57191e-05, Final residual = 5.77862e-08, No Iterations 6
diagonal:  Solving for rho, Initial residual = 0, Final residual = 0, No Iterations 0
time step continuity errors (oil): sum local = 2.4396e-08, global = 2.43919e-08, cumulative = 8.56868e-05

Solving for solid region sphere
DICPCG:  Solving for h, Initial residual = 0.133411, Final residual = 2.16635e-07, No Iterations 5
Min/max T:449.4 449.582
ExecutionTime = 244.06 s  ClockTime = 257 s

Region: oil Courant Number mean: 0.00161295 max: 0.0400127
Region: sphere Diffusion Number mean: 0.280626 max: 9.18589
deltaT = 0.0333333
Time = 99.5667


Solving for fluid region oil
diagonal:  Solving for rho, Initial residual = 0, Final residual = 0, No Iterations 0
DILUPBiCGStab:  Solving for Ux, Initial residual = 0.000328939, Final residual = 6.20412e-08, No Iterations 1
DILUPBiCGStab:  Solving for Uy, Initial residual = 0.000176114, Final residual = 2.49665e-08, No Iterations 1
DILUPBiCGStab:  Solving for Uz, Initial residual = 0.000328919, Final residual = 6.20196e-08, No Iterations 1
DILUPBiCGStab:  Solving for h, Initial residual = 5.49819e-05, Final residual = 2.22715e-10, No Iterations 1
Min/max T:300 449.46
GAMG:  Solving for p_rgh, Initial residual = 0.000788746, Final residual = 3.72922e-06, No Iterations 4
GAMG:  Solving for p_rgh, Initial residual = 1.57092e-05, Final residual = 5.78251e-08, No Iterations 6
diagonal:  Solving for rho, Initial residual = 0, Final residual = 0, No Iterations 0
time step continuity errors (oil): sum local = 2.43943e-08, global = 2.43901e-08, cumulative = 8.57112e-05

Solving for solid region sphere
DICPCG:  Solving for h, Initial residual = 0.133411, Final residual = 2.16646e-07, No Iterations 5
Min/max T:449.385 449.567
ExecutionTime = 244.14 s  ClockTime = 257 s

Region: oil Courant Number mean: 0.00161339 max: 0.0400107
Region: sphere Diffusion Number mean: 0.280629 max: 9.18598
deltaT = 0.0333333
Time = 99.6


Solving for fluid region oil
diagonal:  Solving for rho, Initial residual = 0, Final residual = 0, No Iterations 0
DILUPBiCGStab:  Solving for Ux, Initial residual = 0.000328261, Final residual = 6.19575e-08, No Iterations 1
DILUPBiCGStab:  Solving for Uy, Initial residual = 0.000175645, Final residual = 2.49452e-08, No Iterations 1
DILUPBiCGStab:  Solving for Uz, Initial residual = 0.000328243, Final residual = 6.19365e-08, No Iterations 1
DILUPBiCGStab:  Solving for h, Initial residual = 5.49852e-05, Final residual = 2.22606e-10, No Iterations 1
Min/max T:300 449.445
GAMG:  Solving for p_rgh, Initial residual = 0.000788816, Final residual = 3.7276e-06, No Iterations 4
GAMG:  Solving for p_rgh, Initial residual = 1.56994e-05, Final residual = 5.79004e-08, No Iterations 6
diagonal:  Solving for rho, Initial residual = 0, Final residual = 0, No Iterations 0
time step continuity errors (oil): sum local = 2.43925e-08, global = 2.43883e-08, cumulative = 8.57356e-05

Solving for solid region sphere
DICPCG:  Solving for h, Initial residual = 0.133412, Final residual = 2.16658e-07, No Iterations 5
Min/max T:449.37 449.552
ExecutionTime = 244.33 s  ClockTime = 257 s

Region: oil Courant Number mean: 0.00161384 max: 0.0400088
Region: sphere Diffusion Number mean: 0.280632 max: 9.18607
deltaT = 0.0333333
Time = 99.6333


Solving for fluid region oil
diagonal:  Solving for rho, Initial residual = 0, Final residual = 0, No Iterations 0
DILUPBiCGStab:  Solving for Ux, Initial residual = 0.000327585, Final residual = 6.18742e-08, No Iterations 1
DILUPBiCGStab:  Solving for Uy, Initial residual = 0.000175178, Final residual = 2.49247e-08, No Iterations 1
DILUPBiCGStab:  Solving for Uz, Initial residual = 0.000327567, Final residual = 6.18535e-08, No Iterations 1
DILUPBiCGStab:  Solving for h, Initial residual = 5.4988e-05, Final residual = 2.22497e-10, No Iterations 1
Min/max T:300 449.43
GAMG:  Solving for p_rgh, Initial residual = 0.000788879, Final residual = 3.72594e-06, No Iterations 4
GAMG:  Solving for p_rgh, Initial residual = 1.56895e-05, Final residual = 5.79649e-08, No Iterations 6
diagonal:  Solving for rho, Initial residual = 0, Final residual = 0, No Iterations 0
time step continuity errors (oil): sum local = 2.43907e-08, global = 2.43866e-08, cumulative = 8.576e-05

Solving for solid region sphere
DICPCG:  Solving for h, Initial residual = 0.133412, Final residual = 2.1667e-07, No Iterations 5
Min/max T:449.355 449.537
ExecutionTime = 244.41 s  ClockTime = 257 s

Region: oil Courant Number mean: 0.00161428 max: 0.0400069
Region: sphere Diffusion Number mean: 0.280635 max: 9.18617
deltaT = 0.0333333
Time = 99.6667


Solving for fluid region oil
diagonal:  Solving for rho, Initial residual = 0, Final residual = 0, No Iterations 0
DILUPBiCGStab:  Solving for Ux, Initial residual = 0.00032691, Final residual = 6.1791e-08, No Iterations 1
DILUPBiCGStab:  Solving for Uy, Initial residual = 0.00017471, Final residual = 2.49045e-08, No Iterations 1
DILUPBiCGStab:  Solving for Uz, Initial residual = 0.000326892, Final residual = 6.17704e-08, No Iterations 1
DILUPBiCGStab:  Solving for h, Initial residual = 5.49903e-05, Final residual = 2.22393e-10, No Iterations 1
Min/max T:300 449.415
GAMG:  Solving for p_rgh, Initial residual = 0.000788966, Final residual = 3.72433e-06, No Iterations 4
GAMG:  Solving for p_rgh, Initial residual = 1.56798e-05, Final residual = 5.7974e-08, No Iterations 6
diagonal:  Solving for rho, Initial residual = 0, Final residual = 0, No Iterations 0
time step continuity errors (oil): sum local = 2.4389e-08, global = 2.43848e-08, cumulative = 8.57844e-05

Solving for solid region sphere
DICPCG:  Solving for h, Initial residual = 0.133413, Final residual = 2.16681e-07, No Iterations 5
Min/max T:449.34 449.521
ExecutionTime = 244.47 s  ClockTime = 257 s

Region: oil Courant Number mean: 0.00161472 max: 0.0400049
Region: sphere Diffusion Number mean: 0.280638 max: 9.18626
deltaT = 0.0333333
Time = 99.7


Solving for fluid region oil
diagonal:  Solving for rho, Initial residual = 0, Final residual = 0, No Iterations 0
DILUPBiCGStab:  Solving for Ux, Initial residual = 0.000326236, Final residual = 6.1708e-08, No Iterations 1
DILUPBiCGStab:  Solving for Uy, Initial residual = 0.000174243, Final residual = 2.48847e-08, No Iterations 1
DILUPBiCGStab:  Solving for Uz, Initial residual = 0.000326217, Final residual = 6.16874e-08, No Iterations 1
DILUPBiCGStab:  Solving for h, Initial residual = 5.49923e-05, Final residual = 2.22289e-10, No Iterations 1
Min/max T:300 449.4
GAMG:  Solving for p_rgh, Initial residual = 0.000789061, Final residual = 3.72278e-06, No Iterations 4
GAMG:  Solving for p_rgh, Initial residual = 1.56702e-05, Final residual = 5.80578e-08, No Iterations 6
diagonal:  Solving for rho, Initial residual = 0, Final residual = 0, No Iterations 0
time step continuity errors (oil): sum local = 2.43872e-08, global = 2.4383e-08, cumulative = 8.58088e-05

Solving for solid region sphere
DICPCG:  Solving for h, Initial residual = 0.133414, Final residual = 2.16693e-07, No Iterations 5
Min/max T:449.325 449.506
ExecutionTime = 244.53 s  ClockTime = 257 s

Region: oil Courant Number mean: 0.00161516 max: 0.0400029
Region: sphere Diffusion Number mean: 0.28064 max: 9.18635
deltaT = 0.0333333
Time = 99.7333


Solving for fluid region oil
diagonal:  Solving for rho, Initial residual = 0, Final residual = 0, No Iterations 0
DILUPBiCGStab:  Solving for Ux, Initial residual = 0.000325563, Final residual = 6.16251e-08, No Iterations 1
DILUPBiCGStab:  Solving for Uy, Initial residual = 0.000173779, Final residual = 2.48652e-08, No Iterations 1
DILUPBiCGStab:  Solving for Uz, Initial residual = 0.000325544, Final residual = 6.16045e-08, No Iterations 1
DILUPBiCGStab:  Solving for h, Initial residual = 5.49937e-05, Final residual = 2.22185e-10, No Iterations 1
Min/max T:300 449.385
GAMG:  Solving for p_rgh, Initial residual = 0.000789193, Final residual = 3.72117e-06, No Iterations 4
GAMG:  Solving for p_rgh, Initial residual = 1.56606e-05, Final residual = 5.80665e-08, No Iterations 6
diagonal:  Solving for rho, Initial residual = 0, Final residual = 0, No Iterations 0
time step continuity errors (oil): sum local = 2.43854e-08, global = 2.43812e-08, cumulative = 8.58331e-05

Solving for solid region sphere
DICPCG:  Solving for h, Initial residual = 0.133414, Final residual = 2.16704e-07, No Iterations 5
Min/max T:449.31 449.491
ExecutionTime = 244.59 s  ClockTime = 257 s

Region: oil Courant Number mean: 0.00161559 max: 0.0400009
Region: sphere Diffusion Number mean: 0.280643 max: 9.18644
deltaT = 0.0333333
Time = 99.7667


Solving for fluid region oil
diagonal:  Solving for rho, Initial residual = 0, Final residual = 0, No Iterations 0
DILUPBiCGStab:  Solving for Ux, Initial residual = 0.000324891, Final residual = 6.15425e-08, No Iterations 1
DILUPBiCGStab:  Solving for Uy, Initial residual = 0.000173317, Final residual = 2.48461e-08, No Iterations 1
DILUPBiCGStab:  Solving for Uz, Initial residual = 0.000324872, Final residual = 6.1522e-08, No Iterations 1
DILUPBiCGStab:  Solving for h, Initial residual = 5.49948e-05, Final residual = 2.22078e-10, No Iterations 1
Min/max T:300 449.369
GAMG:  Solving for p_rgh, Initial residual = 0.000789347, Final residual = 3.71957e-06, No Iterations 4
GAMG:  Solving for p_rgh, Initial residual = 1.5651e-05, Final residual = 5.81296e-08, No Iterations 6
diagonal:  Solving for rho, Initial residual = 0, Final residual = 0, No Iterations 0
time step continuity errors (oil): sum local = 2.43837e-08, global = 2.43795e-08, cumulative = 8.58575e-05

Solving for solid region sphere
DICPCG:  Solving for h, Initial residual = 0.133415, Final residual = 2.16716e-07, No Iterations 5
Min/max T:449.295 449.476
ExecutionTime = 244.66 s  ClockTime = 258 s

Region: oil Courant Number mean: 0.00161603 max: 0.0399989
Region: sphere Diffusion Number mean: 0.280646 max: 9.18654
deltaT = 0.0333333
Time = 99.8


Solving for fluid region oil
diagonal:  Solving for rho, Initial residual = 0, Final residual = 0, No Iterations 0
DILUPBiCGStab:  Solving for Ux, Initial residual = 0.00032422, Final residual = 6.14604e-08, No Iterations 1
DILUPBiCGStab:  Solving for Uy, Initial residual = 0.000172857, Final residual = 2.48272e-08, No Iterations 1
DILUPBiCGStab:  Solving for Uz, Initial residual = 0.0003242, Final residual = 6.14398e-08, No Iterations 1
DILUPBiCGStab:  Solving for h, Initial residual = 5.49954e-05, Final residual = 2.21969e-10, No Iterations 1
Min/max T:300 449.354
GAMG:  Solving for p_rgh, Initial residual = 0.000789519, Final residual = 3.71799e-06, No Iterations 4
GAMG:  Solving for p_rgh, Initial residual = 1.56415e-05, Final residual = 5.81666e-08, No Iterations 6
diagonal:  Solving for rho, Initial residual = 0, Final residual = 0, No Iterations 0
time step continuity errors (oil): sum local = 2.43819e-08, global = 2.43777e-08, cumulative = 8.58819e-05

Solving for solid region sphere
DICPCG:  Solving for h, Initial residual = 0.133415, Final residual = 2.16728e-07, No Iterations 5
Min/max T:449.279 449.461
ExecutionTime = 244.83 s  ClockTime = 258 s

Region: oil Courant Number mean: 0.00161646 max: 0.0399969
Region: sphere Diffusion Number mean: 0.280649 max: 9.18663
deltaT = 0.0333333
Time = 99.8333


Solving for fluid region oil
diagonal:  Solving for rho, Initial residual = 0, Final residual = 0, No Iterations 0
DILUPBiCGStab:  Solving for Ux, Initial residual = 0.000323549, Final residual = 6.13787e-08, No Iterations 1
DILUPBiCGStab:  Solving for Uy, Initial residual = 0.000172398, Final residual = 2.48088e-08, No Iterations 1
DILUPBiCGStab:  Solving for Uz, Initial residual = 0.000323529, Final residual = 6.13579e-08, No Iterations 1
DILUPBiCGStab:  Solving for h, Initial residual = 5.49955e-05, Final residual = 2.21866e-10, No Iterations 1
Min/max T:300 449.339
GAMG:  Solving for p_rgh, Initial residual = 0.000789708, Final residual = 3.71637e-06, No Iterations 4
GAMG:  Solving for p_rgh, Initial residual = 1.56321e-05, Final residual = 5.82442e-08, No Iterations 6
diagonal:  Solving for rho, Initial residual = 0, Final residual = 0, No Iterations 0
time step continuity errors (oil): sum local = 2.43801e-08, global = 2.43759e-08, cumulative = 8.59063e-05

Solving for solid region sphere
DICPCG:  Solving for h, Initial residual = 0.133416, Final residual = 2.16739e-07, No Iterations 5
Min/max T:449.264 449.446
ExecutionTime = 244.89 s  ClockTime = 258 s

Region: oil Courant Number mean: 0.00161689 max: 0.0399949
Region: sphere Diffusion Number mean: 0.280652 max: 9.18672
deltaT = 0.0333333
Time = 99.8667


Solving for fluid region oil
diagonal:  Solving for rho, Initial residual = 0, Final residual = 0, No Iterations 0
DILUPBiCGStab:  Solving for Ux, Initial residual = 0.00032288, Final residual = 6.12973e-08, No Iterations 1
DILUPBiCGStab:  Solving for Uy, Initial residual = 0.00017194, Final residual = 2.47907e-08, No Iterations 1
DILUPBiCGStab:  Solving for Uz, Initial residual = 0.00032286, Final residual = 6.12764e-08, No Iterations 1
DILUPBiCGStab:  Solving for h, Initial residual = 5.49952e-05, Final residual = 2.21763e-10, No Iterations 1
Min/max T:300 449.324
GAMG:  Solving for p_rgh, Initial residual = 0.000789904, Final residual = 3.71477e-06, No Iterations 4
GAMG:  Solving for p_rgh, Initial residual = 1.56227e-05, Final residual = 5.82653e-08, No Iterations 6
diagonal:  Solving for rho, Initial residual = 0, Final residual = 0, No Iterations 0
time step continuity errors (oil): sum local = 2.43783e-08, global = 2.43741e-08, cumulative = 8.59307e-05

Solving for solid region sphere
DICPCG:  Solving for h, Initial residual = 0.133416, Final residual = 2.16751e-07, No Iterations 5
Min/max T:449.249 449.43
ExecutionTime = 244.95 s  ClockTime = 258 s

Region: oil Courant Number mean: 0.00161732 max: 0.0399928
Region: sphere Diffusion Number mean: 0.280655 max: 9.18682
deltaT = 0.0333333
Time = 99.9


Solving for fluid region oil
diagonal:  Solving for rho, Initial residual = 0, Final residual = 0, No Iterations 0
DILUPBiCGStab:  Solving for Ux, Initial residual = 0.000322211, Final residual = 6.12163e-08, No Iterations 1
DILUPBiCGStab:  Solving for Uy, Initial residual = 0.000171482, Final residual = 2.47732e-08, No Iterations 1
DILUPBiCGStab:  Solving for Uz, Initial residual = 0.000322191, Final residual = 6.11954e-08, No Iterations 1
DILUPBiCGStab:  Solving for h, Initial residual = 5.49947e-05, Final residual = 2.21659e-10, No Iterations 1
Min/max T:300 449.309
GAMG:  Solving for p_rgh, Initial residual = 0.000790063, Final residual = 3.71317e-06, No Iterations 4
GAMG:  Solving for p_rgh, Initial residual = 1.56134e-05, Final residual = 5.83376e-08, No Iterations 6
diagonal:  Solving for rho, Initial residual = 0, Final residual = 0, No Iterations 0
time step continuity errors (oil): sum local = 2.43766e-08, global = 2.43724e-08, cumulative = 8.5955e-05

Solving for solid region sphere
DICPCG:  Solving for h, Initial residual = 0.133417, Final residual = 2.16762e-07, No Iterations 5
Min/max T:449.234 449.415
ExecutionTime = 245.01 s  ClockTime = 258 s

Region: oil Courant Number mean: 0.00161775 max: 0.0399907
Region: sphere Diffusion Number mean: 0.280657 max: 9.18691
deltaT = 0.0333333
Time = 99.9333


Solving for fluid region oil
diagonal:  Solving for rho, Initial residual = 0, Final residual = 0, No Iterations 0
DILUPBiCGStab:  Solving for Ux, Initial residual = 0.000321543, Final residual = 6.11352e-08, No Iterations 1
DILUPBiCGStab:  Solving for Uy, Initial residual = 0.000171025, Final residual = 2.47559e-08, No Iterations 1
DILUPBiCGStab:  Solving for Uz, Initial residual = 0.000321523, Final residual = 6.11145e-08, No Iterations 1
DILUPBiCGStab:  Solving for h, Initial residual = 5.49939e-05, Final residual = 2.21554e-10, No Iterations 1
Min/max T:300 449.294
GAMG:  Solving for p_rgh, Initial residual = 0.000790176, Final residual = 3.71162e-06, No Iterations 4
GAMG:  Solving for p_rgh, Initial residual = 1.56042e-05, Final residual = 5.83453e-08, No Iterations 6
diagonal:  Solving for rho, Initial residual = 0, Final residual = 0, No Iterations 0
time step continuity errors (oil): sum local = 2.43748e-08, global = 2.43706e-08, cumulative = 8.59794e-05

Solving for solid region sphere
DICPCG:  Solving for h, Initial residual = 0.133418, Final residual = 2.16774e-07, No Iterations 5
Min/max T:449.219 449.4
ExecutionTime = 245.1 s  ClockTime = 258 s

Region: oil Courant Number mean: 0.00161817 max: 0.0399886
Region: sphere Diffusion Number mean: 0.28066 max: 9.187
deltaT = 0.0333333
Time = 99.9667


Solving for fluid region oil
diagonal:  Solving for rho, Initial residual = 0, Final residual = 0, No Iterations 0
DILUPBiCGStab:  Solving for Ux, Initial residual = 0.000320879, Final residual = 6.10543e-08, No Iterations 1
DILUPBiCGStab:  Solving for Uy, Initial residual = 0.00017057, Final residual = 2.47393e-08, No Iterations 1
DILUPBiCGStab:  Solving for Uz, Initial residual = 0.000320857, Final residual = 6.10337e-08, No Iterations 1
DILUPBiCGStab:  Solving for h, Initial residual = 5.49932e-05, Final residual = 2.21445e-10, No Iterations 1
Min/max T:300 449.279
GAMG:  Solving for p_rgh, Initial residual = 0.000790297, Final residual = 3.71001e-06, No Iterations 4
GAMG:  Solving for p_rgh, Initial residual = 1.5595e-05, Final residual = 5.84124e-08, No Iterations 6
diagonal:  Solving for rho, Initial residual = 0, Final residual = 0, No Iterations 0
time step continuity errors (oil): sum local = 2.4373e-08, global = 2.43688e-08, cumulative = 8.60038e-05

Solving for solid region sphere
DICPCG:  Solving for h, Initial residual = 0.133418, Final residual = 2.16786e-07, No Iterations 5
Min/max T:449.204 449.385
ExecutionTime = 245.16 s  ClockTime = 258 s

Region: oil Courant Number mean: 0.0016186 max: 0.0399865
Region: sphere Diffusion Number mean: 0.280663 max: 9.1871
deltaT = 0.0333333
Time = 100


Solving for fluid region oil
diagonal:  Solving for rho, Initial residual = 0, Final residual = 0, No Iterations 0
DILUPBiCGStab:  Solving for Ux, Initial residual = 0.000320219, Final residual = 6.09734e-08, No Iterations 1
DILUPBiCGStab:  Solving for Uy, Initial residual = 0.000170116, Final residual = 2.47229e-08, No Iterations 1
DILUPBiCGStab:  Solving for Uz, Initial residual = 0.000320196, Final residual = 6.09528e-08, No Iterations 1
DILUPBiCGStab:  Solving for h, Initial residual = 5.4993e-05, Final residual = 2.21333e-10, No Iterations 1
Min/max T:300 449.263
GAMG:  Solving for p_rgh, Initial residual = 0.000790438, Final residual = 3.70843e-06, No Iterations 4
GAMG:  Solving for p_rgh, Initial residual = 1.55859e-05, Final residual = 5.84358e-08, No Iterations 6
diagonal:  Solving for rho, Initial residual = 0, Final residual = 0, No Iterations 0
time step continuity errors (oil): sum local = 2.43713e-08, global = 2.4367e-08, cumulative = 8.60281e-05

Solving for solid region sphere
DICPCG:  Solving for h, Initial residual = 0.133419, Final residual = 2.16797e-07, No Iterations 5
Min/max T:449.189 449.37
ExecutionTime = 245.35 s  ClockTime = 258 s

End

