/*---------------------------------------------------------------------------*\
| =========                 |                                                 |
| \\      /  F ield         | OpenFOAM: The Open Source CFD Toolbox           |
|  \\    /   O peration     | Version:  v1912                                 |
|   \\  /    A nd           | Website:  www.openfoam.com                      |
|    \\/     M anipulation  |                                                 |
\*---------------------------------------------------------------------------*/
Build  : _f3950763fe-20191219 OPENFOAM=1912
Arch   : "LSB;label=32;scalar=64"
Exec   : chtMultiRegionFoam
Date   : Mar 20 2020
Time   : 19:49:55
Host   : LAPTOP-FK3MEHTI
PID    : 3703
I/O    : uncollated
Case   : /home/theodore_ong/GitHub_OpenFoam_workspace/OpenFoam_heatTrf_YouTube/chtMultiregionFoam/expt_case
nProcs : 1
trapFpe: Floating point exception trapping enabled (FOAM_SIGFPE).
fileModificationChecking : Monitoring run-time modified files using timeStampMaster (fileModificationSkew 10)
allowSystemOperations : Allowing user-supplied system call operations

// * * * * * * * * * * * * * * * * * * * * * * * * * * * * * * * * * * * * * //
Create time

Create fluid mesh for region oil for time = 0

Create solid mesh for region sphere for time = 0

*** Reading fluid mesh thermophysical properties for region oil

    Adding to thermoFluid

Selecting thermodynamics package 
{
    type            heRhoThermo;
    mixture         pureMixture;
    transport       polynomial;
    thermo          hPolynomial;
    equationOfState icoPolynomial;
    specie          specie;
    energy          sensibleEnthalpy;
}

    Adding to rhoFluid

    Adding to UFluid

    Adding to phiFluid

    Adding to hRefFluid

    Adding to ghFluid

    Adding to ghfFluid

    Adding to turbulenceFluid

Selecting turbulence model type laminar
Selecting laminar stress model Stokes
    Adding to reactionFluid

Combustion model not active: combustionProperties not found
Selecting combustion model none
    Adding to radiationFluid

Selecting radiationModel none
    Adding to KFluid

    Adding to dpdtFluid

    Adding to fieldsFluid

    Adding to QdotFluid

    Adding MRF

No MRF models present

    Adding fvOptions

*** Reading solid mesh thermophysical properties for region sphere

    Adding to thermos

Selecting thermodynamics package 
{
    type            heSolidThermo;
    mixture         pureMixture;
    transport       polynomial;
    thermo          hPolynomial;
    equationOfState rhoConst;
    specie          specie;
    energy          sensibleEnthalpy;
}

    Adding to radiations

Selecting radiationModel none
    Adding fvOptions

Region: oil Courant Number mean: 0 max: 0
Region: sphere Diffusion Number mean: 0.0751965 max: 0.4853
wallHeatFlux wallHeatFlux1:
    processing all wall patches

Selecting heat transfer coefficient model fixedReferenceTemperature
surfaceFieldValue avgSphereHeatTrfCoeff:
    operation     = areaAverage


deltaT = 0.001
Region: oil Courant Number mean: 0 max: 0
Region: sphere Diffusion Number mean: 0.0751965 max: 0.4853
deltaT = 0.00119976
Time = 0.00119976


Solving for fluid region oil
diagonal:  Solving for rho, Initial residual = 0, Final residual = 0, No Iterations 0
DILUPBiCGStab:  Solving for Ux, Initial residual = 1, Final residual = 5.92982e-07, No Iterations 1
DILUPBiCGStab:  Solving for Uy, Initial residual = 1, Final residual = 2.7467e-07, No Iterations 1
DILUPBiCGStab:  Solving for Uz, Initial residual = 1, Final residual = 5.85994e-07, No Iterations 1
DILUPBiCGStab:  Solving for h, Initial residual = 1, Final residual = 6.31951e-08, No Iterations 1
Min/max T:300 499.572
GAMG:  Solving for p_rgh, Initial residual = 0.395578, Final residual = 9.07879e-06, No Iterations 23
GAMG:  Solving for p_rgh, Initial residual = 0.837495, Final residual = 7.75483e-06, No Iterations 16
diagonal:  Solving for rho, Initial residual = 0, Final residual = 0, No Iterations 0
time step continuity errors (oil): sum local = 3.25289e-08, global = 3.21129e-08, cumulative = 3.21129e-08

Solving for solid region sphere
DICPCG:  Solving for h, Initial residual = 1, Final residual = 6.11977e-11, No Iterations 6
Min/max T:499.662 500
ExecutionTime = 3.32 s  ClockTime = 4 s

Region: oil Courant Number mean: 9.74302e-06 max: 0.00252744
Region: sphere Diffusion Number mean: 0.0902183 max: 0.582319
deltaT = 0.00144006
Time = 0.00263982


Solving for fluid region oil
diagonal:  Solving for rho, Initial residual = 0, Final residual = 0, No Iterations 0
DILUPBiCGStab:  Solving for Ux, Initial residual = 0.406798, Final residual = 5.46309e-07, No Iterations 1
DILUPBiCGStab:  Solving for Uy, Initial residual = 0.393549, Final residual = 2.79617e-07, No Iterations 1
DILUPBiCGStab:  Solving for Uz, Initial residual = 0.40713, Final residual = 5.43687e-07, No Iterations 1
DILUPBiCGStab:  Solving for h, Initial residual = 0.0020855, Final residual = 4.62937e-10, No Iterations 1
Min/max T:300 499.584
GAMG:  Solving for p_rgh, Initial residual = 0.736755, Final residual = 6.32357e-06, No Iterations 17
GAMG:  Solving for p_rgh, Initial residual = 0.332978, Final residual = 7.24788e-06, No Iterations 20
diagonal:  Solving for rho, Initial residual = 0, Final residual = 0, No Iterations 0
time step continuity errors (oil): sum local = 2.18768e-08, global = 2.18547e-08, cumulative = 5.39677e-08

Solving for solid region sphere
DICPCG:  Solving for h, Initial residual = 0.27144, Final residual = 7.80775e-11, No Iterations 6
Min/max T:499.58 500
ExecutionTime = 5.04 s  ClockTime = 5 s

Region: oil Courant Number mean: 1.01464e-05 max: 0.00232999
Region: sphere Diffusion Number mean: 0.108289 max: 0.698974
deltaT = 0.00172782
Time = 0.00436764


Solving for fluid region oil
diagonal:  Solving for rho, Initial residual = 0, Final residual = 0, No Iterations 0
DILUPBiCGStab:  Solving for Ux, Initial residual = 0.15117, Final residual = 2.63879e-07, No Iterations 1
DILUPBiCGStab:  Solving for Uy, Initial residual = 0.0507002, Final residual = 1.13006e-07, No Iterations 1
DILUPBiCGStab:  Solving for Uz, Initial residual = 0.151959, Final residual = 2.65328e-07, No Iterations 1
DILUPBiCGStab:  Solving for h, Initial residual = 0.00227493, Final residual = 4.45793e-10, No Iterations 1
Min/max T:300 499.495
GAMG:  Solving for p_rgh, Initial residual = 0.321942, Final residual = 8.73769e-06, No Iterations 18
GAMG:  Solving for p_rgh, Initial residual = 0.051455, Final residual = 9.6694e-06, No Iterations 13
diagonal:  Solving for rho, Initial residual = 0, Final residual = 0, No Iterations 0
time step continuity errors (oil): sum local = 1.20533e-08, global = 1.20292e-08, cumulative = 6.59969e-08

Solving for solid region sphere
DICPCG:  Solving for h, Initial residual = 0.176798, Final residual = 2.20678e-10, No Iterations 6
Min/max T:499.483 500
ExecutionTime = 7.05 s  ClockTime = 7 s

Region: oil Courant Number mean: 1.15346e-05 max: 0.00254184
Region: sphere Diffusion Number mean: 0.129929 max: 0.83868
deltaT = 0.00207446
Time = 0.0064421


Solving for fluid region oil
diagonal:  Solving for rho, Initial residual = 0, Final residual = 0, No Iterations 0
DILUPBiCGStab:  Solving for Ux, Initial residual = 0.0897735, Final residual = 1.71483e-07, No Iterations 1
DILUPBiCGStab:  Solving for Uy, Initial residual = 0.0303963, Final residual = 7.61473e-08, No Iterations 1
DILUPBiCGStab:  Solving for Uz, Initial residual = 0.0896708, Final residual = 1.71251e-07, No Iterations 1
DILUPBiCGStab:  Solving for h, Initial residual = 0.00121244, Final residual = 4.93826e-10, No Iterations 1
Min/max T:300 499.401
GAMG:  Solving for p_rgh, Initial residual = 0.202747, Final residual = 6.08182e-06, No Iterations 16
GAMG:  Solving for p_rgh, Initial residual = 0.0191917, Final residual = 9.55249e-06, No Iterations 10
diagonal:  Solving for rho, Initial residual = 0, Final residual = 0, No Iterations 0
time step continuity errors (oil): sum local = 3.152e-08, global = 3.14892e-08, cumulative = 9.74861e-08

Solving for solid region sphere
DICPCG:  Solving for h, Initial residual = 0.142088, Final residual = 7.2017e-10, No Iterations 6
Min/max T:499.38 500
ExecutionTime = 8.76 s  ClockTime = 9 s

Region: oil Courant Number mean: 1.41254e-05 max: 0.00290763
Region: sphere Diffusion Number mean: 0.155998 max: 1.00698
deltaT = 0.00248884
Time = 0.00893094


Solving for fluid region oil
diagonal:  Solving for rho, Initial residual = 0, Final residual = 0, No Iterations 0
DILUPBiCGStab:  Solving for Ux, Initial residual = 0.0783626, Final residual = 2.56573e-07, No Iterations 1
DILUPBiCGStab:  Solving for Uy, Initial residual = 0.02499, Final residual = 1.11971e-07, No Iterations 1
DILUPBiCGStab:  Solving for Uz, Initial residual = 0.0783825, Final residual = 2.56884e-07, No Iterations 1
DILUPBiCGStab:  Solving for h, Initial residual = 0.00114156, Final residual = 6.01543e-10, No Iterations 1
Min/max T:300 499.3
GAMG:  Solving for p_rgh, Initial residual = 0.157876, Final residual = 7.74363e-06, No Iterations 16
GAMG:  Solving for p_rgh, Initial residual = 0.00748676, Final residual = 7.25965e-06, No Iterations 8
diagonal:  Solving for rho, Initial residual = 0, Final residual = 0, No Iterations 0
time step continuity errors (oil): sum local = 4.11465e-08, global = 4.11152e-08, cumulative = 1.38601e-07

Solving for solid region sphere
DICPCG:  Solving for h, Initial residual = 0.125732, Final residual = 1.36882e-10, No Iterations 7
Min/max T:499.272 500
ExecutionTime = 10.54 s  ClockTime = 11 s

Region: oil Courant Number mean: 1.69335e-05 max: 0.00336082
Region: sphere Diffusion Number mean: 0.187161 max: 1.20818
deltaT = 0.00298511
Time = 0.011916


Solving for fluid region oil
diagonal:  Solving for rho, Initial residual = 0, Final residual = 0, No Iterations 0
DILUPBiCGStab:  Solving for Ux, Initial residual = 0.0218487, Final residual = 3.77423e-07, No Iterations 1
DILUPBiCGStab:  Solving for Uy, Initial residual = 0.00558355, Final residual = 1.85825e-07, No Iterations 1
DILUPBiCGStab:  Solving for Uz, Initial residual = 0.0218421, Final residual = 3.78841e-07, No Iterations 1
DILUPBiCGStab:  Solving for h, Initial residual = 0.000952079, Final residual = 7.52195e-10, No Iterations 1
Min/max T:300 499.192
GAMG:  Solving for p_rgh, Initial residual = 0.136836, Final residual = 8.2461e-06, No Iterations 13
GAMG:  Solving for p_rgh, Initial residual = 0.00328886, Final residual = 7.12745e-06, No Iterations 6
diagonal:  Solving for rho, Initial residual = 0, Final residual = 0, No Iterations 0
time step continuity errors (oil): sum local = 4.28937e-08, global = 4.28465e-08, cumulative = 1.81448e-07

Solving for solid region sphere
DICPCG:  Solving for h, Initial residual = 0.116212, Final residual = 5.4096e-10, No Iterations 7
Min/max T:499.158 500
ExecutionTime = 12.17 s  ClockTime = 13 s

Region: oil Courant Number mean: 2.00347e-05 max: 0.00390413
Region: sphere Diffusion Number mean: 0.224484 max: 1.44915
deltaT = 0.00358213
Time = 0.0154982


Solving for fluid region oil
diagonal:  Solving for rho, Initial residual = 0, Final residual = 0, No Iterations 0
DILUPBiCGStab:  Solving for Ux, Initial residual = 0.0278643, Final residual = 6.97021e-07, No Iterations 1
DILUPBiCGStab:  Solving for Uy, Initial residual = 0.00825538, Final residual = 3.3664e-07, No Iterations 1
DILUPBiCGStab:  Solving for Uz, Initial residual = 0.027906, Final residual = 7.00317e-07, No Iterations 1
DILUPBiCGStab:  Solving for h, Initial residual = 0.000861151, Final residual = 9.65378e-10, No Iterations 1
Min/max T:300 499.076
GAMG:  Solving for p_rgh, Initial residual = 0.126528, Final residual = 9.09137e-06, No Iterations 12
GAMG:  Solving for p_rgh, Initial residual = 0.00193413, Final residual = 9.45464e-06, No Iterations 5
diagonal:  Solving for rho, Initial residual = 0, Final residual = 0, No Iterations 0
time step continuity errors (oil): sum local = 5.19791e-08, global = 5.18831e-08, cumulative = 2.33331e-07

Solving for solid region sphere
DICPCG:  Solving for h, Initial residual = 0.11041, Final residual = 1.49866e-10, No Iterations 8
Min/max T:499.034 500
ExecutionTime = 13.75 s  ClockTime = 14 s

Region: oil Courant Number mean: 2.39554e-05 max: 0.00454892
Region: sphere Diffusion Number mean: 0.269386 max: 1.73906
deltaT = 0.00429546
Time = 0.0197936


Solving for fluid region oil
diagonal:  Solving for rho, Initial residual = 0, Final residual = 0, No Iterations 0
DILUPBiCGStab:  Solving for Ux, Initial residual = 0.0119986, Final residual = 1.15689e-06, No Iterations 1
DILUPBiCGStab:  Solving for Uy, Initial residual = 0.00282782, Final residual = 5.58276e-07, No Iterations 1
DILUPBiCGStab:  Solving for Uz, Initial residual = 0.0120273, Final residual = 1.16281e-06, No Iterations 1
DILUPBiCGStab:  Solving for h, Initial residual = 0.000800278, Final residual = 1.25313e-09, No Iterations 1
Min/max T:300 498.951
GAMG:  Solving for p_rgh, Initial residual = 0.115484, Final residual = 7.42694e-06, No Iterations 9
GAMG:  Solving for p_rgh, Initial residual = 0.000916655, Final residual = 5.3681e-06, No Iterations 4
diagonal:  Solving for rho, Initial residual = 0, Final residual = 0, No Iterations 0
time step continuity errors (oil): sum local = 6.27114e-08, global = 6.26253e-08, cumulative = 2.95956e-07

Solving for solid region sphere
DICPCG:  Solving for h, Initial residual = 0.107618, Final residual = 6.3365e-10, No Iterations 8
Min/max T:498.903 500
ExecutionTime = 15.09 s  ClockTime = 15 s

Region: oil Courant Number mean: 2.86296e-05 max: 0.00528885
Region: sphere Diffusion Number mean: 0.323038 max: 2.08547
deltaT = 0.00515679
Time = 0.0249504


Solving for fluid region oil
diagonal:  Solving for rho, Initial residual = 0, Final residual = 0, No Iterations 0
DILUPBiCGStab:  Solving for Ux, Initial residual = 0.012303, Final residual = 1.99783e-06, No Iterations 1
DILUPBiCGStab:  Solving for Uy, Initial residual = 0.00318571, Final residual = 9.50206e-07, No Iterations 1
DILUPBiCGStab:  Solving for Uz, Initial residual = 0.0123231, Final residual = 2.0086e-06, No Iterations 1
DILUPBiCGStab:  Solving for h, Initial residual = 0.000757334, Final residual = 1.64403e-09, No Iterations 1
Min/max T:300 498.817
GAMG:  Solving for p_rgh, Initial residual = 0.108168, Final residual = 8.46626e-06, No Iterations 9
GAMG:  Solving for p_rgh, Initial residual = 0.000697843, Final residual = 5.69857e-06, No Iterations 4
diagonal:  Solving for rho, Initial residual = 0, Final residual = 0, No Iterations 0
time step continuity errors (oil): sum local = 7.40303e-08, global = 7.38863e-08, cumulative = 3.69842e-07

Solving for solid region sphere
DICPCG:  Solving for h, Initial residual = 0.10697, Final residual = 2.48456e-10, No Iterations 9
Min/max T:498.763 500
ExecutionTime = 16.51 s  ClockTime = 17 s

Region: oil Courant Number mean: 3.42142e-05 max: 0.00611908
Region: sphere Diffusion Number mean: 0.387825 max: 2.50379
deltaT = 0.00619138
Time = 0.0311418


Solving for fluid region oil
diagonal:  Solving for rho, Initial residual = 0, Final residual = 0, No Iterations 0
DILUPBiCGStab:  Solving for Ux, Initial residual = 0.0146501, Final residual = 3.41805e-06, No Iterations 1
DILUPBiCGStab:  Solving for Uy, Initial residual = 0.00423321, Final residual = 1.59036e-06, No Iterations 1
DILUPBiCGStab:  Solving for Uz, Initial residual = 0.0146664, Final residual = 3.4369e-06, No Iterations 1
DILUPBiCGStab:  Solving for h, Initial residual = 0.000727277, Final residual = 2.15992e-09, No Iterations 1
Min/max T:300 498.673
GAMG:  Solving for p_rgh, Initial residual = 0.102205, Final residual = 6.65699e-06, No Iterations 9
GAMG:  Solving for p_rgh, Initial residual = 0.000523753, Final residual = 8.17722e-06, No Iterations 3
diagonal:  Solving for rho, Initial residual = 0, Final residual = 0, No Iterations 0
time step continuity errors (oil): sum local = 8.76924e-08, global = 8.73649e-08, cumulative = 4.57207e-07

Solving for solid region sphere
DICPCG:  Solving for h, Initial residual = 0.107149, Final residual = 1.30897e-10, No Iterations 10
Min/max T:498.612 500
ExecutionTime = 18.02 s  ClockTime = 18 s

Region: oil Courant Number mean: 4.09101e-05 max: 0.00699639
Region: sphere Diffusion Number mean: 0.465649 max: 3.00629
deltaT = 0.00742965
Time = 0.0385715


Solving for fluid region oil
diagonal:  Solving for rho, Initial residual = 0, Final residual = 0, No Iterations 0
DILUPBiCGStab:  Solving for Ux, Initial residual = 0.0167447, Final residual = 5.7213e-06, No Iterations 1
DILUPBiCGStab:  Solving for Uy, Initial residual = 0.00507224, Final residual = 2.58704e-06, No Iterations 1
DILUPBiCGStab:  Solving for Uz, Initial residual = 0.0167976, Final residual = 5.75408e-06, No Iterations 1
DILUPBiCGStab:  Solving for h, Initial residual = 0.000702834, Final residual = 2.82167e-09, No Iterations 1
Min/max T:300 498.516
GAMG:  Solving for p_rgh, Initial residual = 0.096931, Final residual = 6.1007e-06, No Iterations 9
GAMG:  Solving for p_rgh, Initial residual = 0.000430605, Final residual = 7.40383e-06, No Iterations 3
diagonal:  Solving for rho, Initial residual = 0, Final residual = 0, No Iterations 0
time step continuity errors (oil): sum local = 1.03506e-07, global = 1.03042e-07, cumulative = 5.60249e-07

Solving for solid region sphere
DICPCG:  Solving for h, Initial residual = 0.108171, Final residual = 5.86344e-10, No Iterations 10
Min/max T:498.451 499.999
ExecutionTime = 19.33 s  ClockTime = 20 s

Region: oil Courant Number mean: 4.89011e-05 max: 0.00803772
Region: sphere Diffusion Number mean: 0.558801 max: 3.60777
deltaT = 0.00891558
Time = 0.047487


Solving for fluid region oil
diagonal:  Solving for rho, Initial residual = 0, Final residual = 0, No Iterations 0
DILUPBiCGStab:  Solving for Ux, Initial residual = 0.0205281, Final residual = 9.40985e-06, No Iterations 1
DILUPBiCGStab:  Solving for Uy, Initial residual = 0.00636284, Final residual = 4.09921e-06, No Iterations 1
DILUPBiCGStab:  Solving for Uz, Initial residual = 0.0205795, Final residual = 9.46394e-06, No Iterations 1
DILUPBiCGStab:  Solving for h, Initial residual = 0.000683533, Final residual = 3.6614e-09, No Iterations 1
Min/max T:300 498.346
GAMG:  Solving for p_rgh, Initial residual = 0.0922617, Final residual = 5.68265e-06, No Iterations 9
GAMG:  Solving for p_rgh, Initial residual = 0.000371838, Final residual = 6.84804e-06, No Iterations 3
diagonal:  Solving for rho, Initial residual = 0, Final residual = 0, No Iterations 0
time step continuity errors (oil): sum local = 1.21746e-07, global = 1.21077e-07, cumulative = 6.81326e-07

Solving for solid region sphere
DICPCG:  Solving for h, Initial residual = 0.110457, Final residual = 3.75253e-10, No Iterations 11
Min/max T:498.276 499.998
ExecutionTime = 20.81 s  ClockTime = 21 s

Region: oil Courant Number mean: 5.84472e-05 max: 0.00926701
Region: sphere Diffusion Number mean: 0.670593 max: 4.32962
deltaT = 0.0106695
Time = 0.0581565


Solving for fluid region oil
diagonal:  Solving for rho, Initial residual = 0, Final residual = 0, No Iterations 0
DILUPBiCGStab:  Solving for Ux, Initial residual = 0.0259867, Final residual = 1.69081e-08, No Iterations 1
DILUPBiCGStab:  Solving for Uy, Initial residual = 0.00805504, Final residual = 6.26105e-06, No Iterations 1
DILUPBiCGStab:  Solving for Uz, Initial residual = 0.0260608, Final residual = 1.70566e-08, No Iterations 1
DILUPBiCGStab:  Solving for h, Initial residual = 0.000666032, Final residual = 4.68644e-09, No Iterations 1
Min/max T:300 498.161
GAMG:  Solving for p_rgh, Initial residual = 0.0876995, Final residual = 5.5462e-06, No Iterations 9
GAMG:  Solving for p_rgh, Initial residual = 0.000333136, Final residual = 6.61669e-06, No Iterations 3
diagonal:  Solving for rho, Initial residual = 0, Final residual = 0, No Iterations 0
time step continuity errors (oil): sum local = 1.4237e-07, global = 1.41375e-07, cumulative = 8.22701e-07

Solving for solid region sphere
DICPCG:  Solving for h, Initial residual = 0.113688, Final residual = 3.00022e-10, No Iterations 12
Min/max T:498.088 499.995
ExecutionTime = 22.26 s  ClockTime = 23 s

Region: oil Courant Number mean: 6.96653e-05 max: 0.0134098
Region: sphere Diffusion Number mean: 0.802557 max: 5.18172
deltaT = 0.0127753
Time = 0.0709318


Solving for fluid region oil
diagonal:  Solving for rho, Initial residual = 0, Final residual = 0, No Iterations 0
DILUPBiCGStab:  Solving for Ux, Initial residual = 0.0335235, Final residual = 3.1683e-08, No Iterations 1
DILUPBiCGStab:  Solving for Uy, Initial residual = 0.0101506, Final residual = 9.29028e-06, No Iterations 1
DILUPBiCGStab:  Solving for Uz, Initial residual = 0.0336288, Final residual = 3.19759e-08, No Iterations 1
DILUPBiCGStab:  Solving for h, Initial residual = 0.000652022, Final residual = 6.2075e-09, No Iterations 1
Min/max T:300 497.959
GAMG:  Solving for p_rgh, Initial residual = 0.0834083, Final residual = 5.48854e-06, No Iterations 9
GAMG:  Solving for p_rgh, Initial residual = 0.000307594, Final residual = 6.48035e-06, No Iterations 3
diagonal:  Solving for rho, Initial residual = 0, Final residual = 0, No Iterations 0
time step continuity errors (oil): sum local = 1.65953e-07, global = 1.64469e-07, cumulative = 9.8717e-07

Solving for solid region sphere
DICPCG:  Solving for h, Initial residual = 0.118093, Final residual = 2.76569e-10, No Iterations 13
Min/max T:497.884 499.986
ExecutionTime = 23.42 s  ClockTime = 24 s

Region: oil Courant Number mean: 8.31207e-05 max: 0.0209872
Region: sphere Diffusion Number mean: 0.96102 max: 6.20492
deltaT = 0.0153101
Time = 0.0862419


Solving for fluid region oil
diagonal:  Solving for rho, Initial residual = 0, Final residual = 0, No Iterations 0
DILUPBiCGStab:  Solving for Ux, Initial residual = 0.043765, Final residual = 5.77765e-08, No Iterations 1
DILUPBiCGStab:  Solving for Uy, Initial residual = 0.0126811, Final residual = 2.67592e-08, No Iterations 1
DILUPBiCGStab:  Solving for Uz, Initial residual = 0.0439053, Final residual = 5.83273e-08, No Iterations 1
DILUPBiCGStab:  Solving for h, Initial residual = 0.000640915, Final residual = 9.79279e-09, No Iterations 1
Min/max T:300 497.739
GAMG:  Solving for p_rgh, Initial residual = 0.0792163, Final residual = 5.47753e-06, No Iterations 9
GAMG:  Solving for p_rgh, Initial residual = 0.000289981, Final residual = 6.41427e-06, No Iterations 3
diagonal:  Solving for rho, Initial residual = 0, Final residual = 0, No Iterations 0
time step continuity errors (oil): sum local = 1.92772e-07, global = 1.90555e-07, cumulative = 1.17772e-06

Solving for solid region sphere
DICPCG:  Solving for h, Initial residual = 0.123644, Final residual = 2.71706e-10, No Iterations 14
Min/max T:497.663 499.967
ExecutionTime = 24.82 s  ClockTime = 25 s

Region: oil Courant Number mean: 9.93446e-05 max: 0.0332948
Region: sphere Diffusion Number mean: 1.15179 max: 7.43669
deltaT = 0.0184015
Time = 0.104643


Solving for fluid region oil
diagonal:  Solving for rho, Initial residual = 0, Final residual = 0, No Iterations 0
DILUPBiCGStab:  Solving for Ux, Initial residual = 0.0575391, Final residual = 1.03269e-07, No Iterations 1
DILUPBiCGStab:  Solving for Uy, Initial residual = 0.0156919, Final residual = 4.43668e-08, No Iterations 1
DILUPBiCGStab:  Solving for Uz, Initial residual = 0.0577257, Final residual = 1.04246e-07, No Iterations 1
DILUPBiCGStab:  Solving for h, Initial residual = 0.000633381, Final residual = 1.8378e-08, No Iterations 1
Min/max T:300 497.5
GAMG:  Solving for p_rgh, Initial residual = 0.0751475, Final residual = 5.524e-06, No Iterations 9
GAMG:  Solving for p_rgh, Initial residual = 0.000277785, Final residual = 6.40877e-06, No Iterations 3
diagonal:  Solving for rho, Initial residual = 0, Final residual = 0, No Iterations 0
time step continuity errors (oil): sum local = 2.2343e-07, global = 2.20111e-07, cumulative = 1.39784e-06

Solving for solid region sphere
DICPCG:  Solving for h, Initial residual = 0.130495, Final residual = 3.13777e-10, No Iterations 15
Min/max T:497.423 499.927
ExecutionTime = 26.24 s  ClockTime = 27 s

Region: oil Courant Number mean: 0.000119169 max: 0.0541822
Region: sphere Diffusion Number mean: 1.38448 max: 8.93916
deltaT = 0.0206017
Time = 0.125245


Solving for fluid region oil
diagonal:  Solving for rho, Initial residual = 0, Final residual = 0, No Iterations 0
DILUPBiCGStab:  Solving for Ux, Initial residual = 0.0671267, Final residual = 1.41094e-07, No Iterations 1
DILUPBiCGStab:  Solving for Uy, Initial residual = 0.01678, Final residual = 5.65911e-08, No Iterations 1
DILUPBiCGStab:  Solving for Uz, Initial residual = 0.0673471, Final residual = 1.42448e-07, No Iterations 1
DILUPBiCGStab:  Solving for h, Initial residual = 0.000584026, Final residual = 2.82526e-08, No Iterations 1
Min/max T:300 497.237
GAMG:  Solving for p_rgh, Initial residual = 0.0667695, Final residual = 5.26683e-06, No Iterations 9
GAMG:  Solving for p_rgh, Initial residual = 0.000254997, Final residual = 6.45794e-06, No Iterations 3
diagonal:  Solving for rho, Initial residual = 0, Final residual = 0, No Iterations 0
time step continuity errors (oil): sum local = 2.41587e-07, global = 2.37084e-07, cumulative = 1.63492e-06

Solving for solid region sphere
DICPCG:  Solving for h, Initial residual = 0.131681, Final residual = 7.58948e-10, No Iterations 15
Min/max T:497.151 499.859
ExecutionTime = 27.64 s  ClockTime = 28 s

Region: oil Courant Number mean: 0.000133423 max: 0.0794145
Region: sphere Diffusion Number mean: 1.55017 max: 10.009
deltaT = 0.0206017
Time = 0.145847


Solving for fluid region oil
diagonal:  Solving for rho, Initial residual = 0, Final residual = 0, No Iterations 0
DILUPBiCGStab:  Solving for Ux, Initial residual = 0.0648284, Final residual = 1.3331e-07, No Iterations 1
DILUPBiCGStab:  Solving for Uy, Initial residual = 0.0144913, Final residual = 5.06329e-08, No Iterations 1
DILUPBiCGStab:  Solving for Uz, Initial residual = 0.0650486, Final residual = 1.34649e-07, No Iterations 1
DILUPBiCGStab:  Solving for h, Initial residual = 0.00048715, Final residual = 3.16244e-08, No Iterations 1
Min/max T:300 496.967
GAMG:  Solving for p_rgh, Initial residual = 0.054592, Final residual = 9.03829e-06, No Iterations 8
GAMG:  Solving for p_rgh, Initial residual = 0.00022279, Final residual = 6.73157e-06, No Iterations 3
diagonal:  Solving for rho, Initial residual = 0, Final residual = 0, No Iterations 0
time step continuity errors (oil): sum local = 2.35548e-07, global = 2.30211e-07, cumulative = 1.86513e-06

Solving for solid region sphere
DICPCG:  Solving for h, Initial residual = 0.124021, Final residual = 6.95441e-10, No Iterations 15
Min/max T:496.891 499.769
ExecutionTime = 29.1 s  ClockTime = 30 s

Region: oil Courant Number mean: 0.000133892 max: 0.100041
Region: sphere Diffusion Number mean: 1.55032 max: 10.01
deltaT = 0.0206017
Time = 0.166448


Solving for fluid region oil
diagonal:  Solving for rho, Initial residual = 0, Final residual = 0, No Iterations 0
DILUPBiCGStab:  Solving for Ux, Initial residual = 0.0626333, Final residual = 1.3101e-07, No Iterations 1
DILUPBiCGStab:  Solving for Uy, Initial residual = 0.0126219, Final residual = 4.6321e-08, No Iterations 1
DILUPBiCGStab:  Solving for Uz, Initial residual = 0.062853, Final residual = 1.3235e-07, No Iterations 1
DILUPBiCGStab:  Solving for h, Initial residual = 0.000416786, Final residual = 3.55689e-08, No Iterations 1
Min/max T:300 496.718
GAMG:  Solving for p_rgh, Initial residual = 0.0456813, Final residual = 7.89417e-06, No Iterations 8
GAMG:  Solving for p_rgh, Initial residual = 0.000192034, Final residual = 5.76301e-06, No Iterations 3
diagonal:  Solving for rho, Initial residual = 0, Final residual = 0, No Iterations 0
time step continuity errors (oil): sum local = 2.28819e-07, global = 2.23728e-07, cumulative = 2.08886e-06

Solving for solid region sphere
DICPCG:  Solving for h, Initial residual = 0.118319, Final residual = 6.54452e-10, No Iterations 15
Min/max T:496.641 499.658
ExecutionTime = 30.49 s  ClockTime = 31 s

Region: oil Courant Number mean: 0.000134703 max: 0.122192
Region: sphere Diffusion Number mean: 1.55046 max: 10.011
deltaT = 0.0206017
Time = 0.18705


Solving for fluid region oil
diagonal:  Solving for rho, Initial residual = 0, Final residual = 0, No Iterations 0
DILUPBiCGStab:  Solving for Ux, Initial residual = 0.0608707, Final residual = 1.28035e-07, No Iterations 1
DILUPBiCGStab:  Solving for Uy, Initial residual = 0.0110626, Final residual = 4.22291e-08, No Iterations 1
DILUPBiCGStab:  Solving for Uz, Initial residual = 0.0610679, Final residual = 1.29289e-07, No Iterations 1
DILUPBiCGStab:  Solving for h, Initial residual = 0.000363378, Final residual = 3.98515e-08, No Iterations 1
Min/max T:300 496.484
GAMG:  Solving for p_rgh, Initial residual = 0.0387933, Final residual = 7.02998e-06, No Iterations 8
GAMG:  Solving for p_rgh, Initial residual = 0.000170851, Final residual = 5.15001e-06, No Iterations 3
diagonal:  Solving for rho, Initial residual = 0, Final residual = 0, No Iterations 0
time step continuity errors (oil): sum local = 2.22569e-07, global = 2.17575e-07, cumulative = 2.30643e-06

Solving for solid region sphere
DICPCG:  Solving for h, Initial residual = 0.113941, Final residual = 6.26504e-10, No Iterations 15
Min/max T:496.407 499.527
ExecutionTime = 31.76 s  ClockTime = 32 s

Region: oil Courant Number mean: 0.000135818 max: 0.145579
Region: sphere Diffusion Number mean: 1.55059 max: 10.0119
deltaT = 0.0206017
Time = 0.207652


Solving for fluid region oil
diagonal:  Solving for rho, Initial residual = 0, Final residual = 0, No Iterations 0
DILUPBiCGStab:  Solving for Ux, Initial residual = 0.0591368, Final residual = 1.25273e-07, No Iterations 1
DILUPBiCGStab:  Solving for Uy, Initial residual = 0.00974011, Final residual = 3.84981e-08, No Iterations 1
DILUPBiCGStab:  Solving for Uz, Initial residual = 0.0593361, Final residual = 1.2643e-07, No Iterations 1
DILUPBiCGStab:  Solving for h, Initial residual = 0.000321508, Final residual = 4.42542e-08, No Iterations 1
Min/max T:300 496.264
GAMG:  Solving for p_rgh, Initial residual = 0.0333556, Final residual = 6.39069e-06, No Iterations 8
GAMG:  Solving for p_rgh, Initial residual = 0.000153573, Final residual = 9.54025e-06, No Iterations 2
diagonal:  Solving for rho, Initial residual = 0, Final residual = 0, No Iterations 0
time step continuity errors (oil): sum local = 2.21765e-07, global = 2.11737e-07, cumulative = 2.51817e-06

Solving for solid region sphere
DICPCG:  Solving for h, Initial residual = 0.110496, Final residual = 6.05867e-10, No Iterations 15
Min/max T:496.187 499.379
ExecutionTime = 33.09 s  ClockTime = 34 s

Region: oil Courant Number mean: 0.000137239 max: 0.169963
Region: sphere Diffusion Number mean: 1.55073 max: 10.0128
deltaT = 0.0206017
Time = 0.228254


Solving for fluid region oil
diagonal:  Solving for rho, Initial residual = 0, Final residual = 0, No Iterations 0
DILUPBiCGStab:  Solving for Ux, Initial residual = 0.057637, Final residual = 1.22541e-07, No Iterations 1
DILUPBiCGStab:  Solving for Uy, Initial residual = 0.00863193, Final residual = 3.51162e-08, No Iterations 1
DILUPBiCGStab:  Solving for Uz, Initial residual = 0.0578378, Final residual = 1.23715e-07, No Iterations 1
DILUPBiCGStab:  Solving for h, Initial residual = 0.000287838, Final residual = 4.86515e-08, No Iterations 1
Min/max T:300 496.056
GAMG:  Solving for p_rgh, Initial residual = 0.0289473, Final residual = 5.88808e-06, No Iterations 8
GAMG:  Solving for p_rgh, Initial residual = 0.000138646, Final residual = 8.6519e-06, No Iterations 2
diagonal:  Solving for rho, Initial residual = 0, Final residual = 0, No Iterations 0
time step continuity errors (oil): sum local = 2.15953e-07, global = 2.06193e-07, cumulative = 2.72436e-06

Solving for solid region sphere
DICPCG:  Solving for h, Initial residual = 0.10775, Final residual = 5.89632e-10, No Iterations 15
Min/max T:495.979 499.218
ExecutionTime = 34.44 s  ClockTime = 35 s

Region: oil Courant Number mean: 0.000138976 max: 0.195111
Region: sphere Diffusion Number mean: 1.55086 max: 10.0136
deltaT = 0.0206017
Time = 0.248855


Solving for fluid region oil
diagonal:  Solving for rho, Initial residual = 0, Final residual = 0, No Iterations 0
DILUPBiCGStab:  Solving for Ux, Initial residual = 0.0560968, Final residual = 1.19693e-07, No Iterations 1
DILUPBiCGStab:  Solving for Uy, Initial residual = 0.00766955, Final residual = 3.20479e-08, No Iterations 1
DILUPBiCGStab:  Solving for Uz, Initial residual = 0.0562837, Final residual = 1.20732e-07, No Iterations 1
DILUPBiCGStab:  Solving for h, Initial residual = 0.000260203, Final residual = 5.29597e-08, No Iterations 1
Min/max T:300 495.857
GAMG:  Solving for p_rgh, Initial residual = 0.0252965, Final residual = 5.43974e-06, No Iterations 8
GAMG:  Solving for p_rgh, Initial residual = 0.000127284, Final residual = 7.98529e-06, No Iterations 2
diagonal:  Solving for rho, Initial residual = 0, Final residual = 0, No Iterations 0
time step continuity errors (oil): sum local = 2.10512e-07, global = 2.00925e-07, cumulative = 2.92529e-06

Solving for solid region sphere
DICPCG:  Solving for h, Initial residual = 0.105552, Final residual = 5.76228e-10, No Iterations 15
Min/max T:495.78 499.046
ExecutionTime = 35.86 s  ClockTime = 36 s

Region: oil Courant Number mean: 0.000141043 max: 0.220877
Region: sphere Diffusion Number mean: 1.55098 max: 10.0144
deltaT = 0.0206017
Time = 0.269457


Solving for fluid region oil
diagonal:  Solving for rho, Initial residual = 0, Final residual = 0, No Iterations 0
DILUPBiCGStab:  Solving for Ux, Initial residual = 0.0546572, Final residual = 1.17088e-07, No Iterations 1
DILUPBiCGStab:  Solving for Uy, Initial residual = 0.0068518, Final residual = 9.55011e-06, No Iterations 1
DILUPBiCGStab:  Solving for Uz, Initial residual = 0.0548342, Final residual = 1.17947e-07, No Iterations 1
DILUPBiCGStab:  Solving for h, Initial residual = 0.000237139, Final residual = 5.71023e-08, No Iterations 1
Min/max T:300 495.667
GAMG:  Solving for p_rgh, Initial residual = 0.0222319, Final residual = 9.6209e-06, No Iterations 7
GAMG:  Solving for p_rgh, Initial residual = 0.000120933, Final residual = 8.57837e-06, No Iterations 2
diagonal:  Solving for rho, Initial residual = 0, Final residual = 0, No Iterations 0
time step continuity errors (oil): sum local = 2.06802e-07, global = 1.95918e-07, cumulative = 3.12121e-06

Solving for solid region sphere
DICPCG:  Solving for h, Initial residual = 0.103787, Final residual = 5.65215e-10, No Iterations 15
Min/max T:495.59 498.864
ExecutionTime = 37.02 s  ClockTime = 38 s

Region: oil Courant Number mean: 0.00014343 max: 0.247101
Region: sphere Diffusion Number mean: 1.55111 max: 10.0151
deltaT = 0.0206017
Time = 0.290059


Solving for fluid region oil
diagonal:  Solving for rho, Initial residual = 0, Final residual = 0, No Iterations 0
DILUPBiCGStab:  Solving for Ux, Initial residual = 0.0532964, Final residual = 1.14683e-07, No Iterations 1
DILUPBiCGStab:  Solving for Uy, Initial residual = 0.00616328, Final residual = 8.64159e-06, No Iterations 1
DILUPBiCGStab:  Solving for Uz, Initial residual = 0.0534768, Final residual = 1.15355e-07, No Iterations 1
DILUPBiCGStab:  Solving for h, Initial residual = 0.000217617, Final residual = 6.10219e-08, No Iterations 1
Min/max T:300 495.484
GAMG:  Solving for p_rgh, Initial residual = 0.0196268, Final residual = 9.12334e-06, No Iterations 7
GAMG:  Solving for p_rgh, Initial residual = 0.000110696, Final residual = 8.02396e-06, No Iterations 2
diagonal:  Solving for rho, Initial residual = 0, Final residual = 0, No Iterations 0
time step continuity errors (oil): sum local = 2.0185e-07, global = 1.91154e-07, cumulative = 3.31236e-06

Solving for solid region sphere
DICPCG:  Solving for h, Initial residual = 0.102369, Final residual = 5.56171e-10, No Iterations 15
Min/max T:495.407 498.676
ExecutionTime = 38.16 s  ClockTime = 39 s

Region: oil Courant Number mean: 0.000146092 max: 0.273673
Region: sphere Diffusion Number mean: 1.55123 max: 10.0158
deltaT = 0.0206017
Time = 0.31066


Solving for fluid region oil
diagonal:  Solving for rho, Initial residual = 0, Final residual = 0, No Iterations 0
DILUPBiCGStab:  Solving for Ux, Initial residual = 0.0517765, Final residual = 1.11959e-07, No Iterations 1
DILUPBiCGStab:  Solving for Uy, Initial residual = 0.0055565, Final residual = 7.85743e-06, No Iterations 1
DILUPBiCGStab:  Solving for Uz, Initial residual = 0.05194, Final residual = 1.12421e-07, No Iterations 1
DILUPBiCGStab:  Solving for h, Initial residual = 0.000200896, Final residual = 6.47086e-08, No Iterations 1
Min/max T:300 495.308
GAMG:  Solving for p_rgh, Initial residual = 0.0173868, Final residual = 8.49841e-06, No Iterations 7
GAMG:  Solving for p_rgh, Initial residual = 0.000103886, Final residual = 7.49951e-06, No Iterations 2
diagonal:  Solving for rho, Initial residual = 0, Final residual = 0, No Iterations 0
time step continuity errors (oil): sum local = 1.97069e-07, global = 1.86619e-07, cumulative = 3.49898e-06

Solving for solid region sphere
DICPCG:  Solving for h, Initial residual = 0.101233, Final residual = 5.48744e-10, No Iterations 15
Min/max T:495.231 498.483
ExecutionTime = 39.32 s  ClockTime = 40 s

Region: oil Courant Number mean: 0.000149047 max: 0.300474
Region: sphere Diffusion Number mean: 1.55134 max: 10.0165
deltaT = 0.0206017
Time = 0.331262


Solving for fluid region oil
diagonal:  Solving for rho, Initial residual = 0, Final residual = 0, No Iterations 0
DILUPBiCGStab:  Solving for Ux, Initial residual = 0.0503029, Final residual = 1.09417e-07, No Iterations 1
DILUPBiCGStab:  Solving for Uy, Initial residual = 0.00503901, Final residual = 7.18881e-06, No Iterations 1
DILUPBiCGStab:  Solving for Uz, Initial residual = 0.0504607, Final residual = 1.09666e-07, No Iterations 1
DILUPBiCGStab:  Solving for h, Initial residual = 0.000186425, Final residual = 6.81346e-08, No Iterations 1
Min/max T:300 495.138
GAMG:  Solving for p_rgh, Initial residual = 0.0154458, Final residual = 8.03542e-06, No Iterations 7
GAMG:  Solving for p_rgh, Initial residual = 9.7213e-05, Final residual = 7.06752e-06, No Iterations 2
diagonal:  Solving for rho, Initial residual = 0, Final residual = 0, No Iterations 0
time step continuity errors (oil): sum local = 1.92548e-07, global = 1.82298e-07, cumulative = 3.68128e-06

Solving for solid region sphere
DICPCG:  Solving for h, Initial residual = 0.100327, Final residual = 5.42901e-10, No Iterations 15
Min/max T:495.061 498.287
ExecutionTime = 40.44 s  ClockTime = 41 s

Region: oil Courant Number mean: 0.000152297 max: 0.328285
Region: sphere Diffusion Number mean: 1.55146 max: 10.0172
deltaT = 0.0206017
Time = 0.351864


Solving for fluid region oil
diagonal:  Solving for rho, Initial residual = 0, Final residual = 0, No Iterations 0
DILUPBiCGStab:  Solving for Ux, Initial residual = 0.0488152, Final residual = 1.06767e-07, No Iterations 1
DILUPBiCGStab:  Solving for Uy, Initial residual = 0.00459307, Final residual = 6.6105e-06, No Iterations 1
DILUPBiCGStab:  Solving for Uz, Initial residual = 0.0489691, Final residual = 1.06846e-07, No Iterations 1
DILUPBiCGStab:  Solving for h, Initial residual = 0.000173791, Final residual = 7.13092e-08, No Iterations 1
Min/max T:300 494.973
GAMG:  Solving for p_rgh, Initial residual = 0.013749, Final residual = 7.62464e-06, No Iterations 7
GAMG:  Solving for p_rgh, Initial residual = 9.14345e-05, Final residual = 6.68978e-06, No Iterations 2
diagonal:  Solving for rho, Initial residual = 0, Final residual = 0, No Iterations 0
time step continuity errors (oil): sum local = 1.88238e-07, global = 1.78179e-07, cumulative = 3.85946e-06

Solving for solid region sphere
DICPCG:  Solving for h, Initial residual = 0.0996086, Final residual = 5.38405e-10, No Iterations 15
Min/max T:494.895 498.089
ExecutionTime = 41.64 s  ClockTime = 42 s

Region: oil Courant Number mean: 0.000155869 max: 0.356495
Region: sphere Diffusion Number mean: 1.55157 max: 10.0179
deltaT = 0.0206017
Time = 0.372466


Solving for fluid region oil
diagonal:  Solving for rho, Initial residual = 0, Final residual = 0, No Iterations 0
DILUPBiCGStab:  Solving for Ux, Initial residual = 0.0473177, Final residual = 1.04024e-07, No Iterations 1
DILUPBiCGStab:  Solving for Uy, Initial residual = 0.00420517, Final residual = 6.10752e-06, No Iterations 1
DILUPBiCGStab:  Solving for Uz, Initial residual = 0.0474667, Final residual = 1.04009e-07, No Iterations 1
DILUPBiCGStab:  Solving for h, Initial residual = 0.000162673, Final residual = 7.42504e-08, No Iterations 1
Min/max T:300 494.813
GAMG:  Solving for p_rgh, Initial residual = 0.0122571, Final residual = 7.26114e-06, No Iterations 7
GAMG:  Solving for p_rgh, Initial residual = 8.61661e-05, Final residual = 6.34923e-06, No Iterations 2
diagonal:  Solving for rho, Initial residual = 0, Final residual = 0, No Iterations 0
time step continuity errors (oil): sum local = 1.84115e-07, global = 1.7425e-07, cumulative = 4.03371e-06

Solving for solid region sphere
DICPCG:  Solving for h, Initial residual = 0.0990464, Final residual = 5.34979e-10, No Iterations 15
Min/max T:494.735 497.89
ExecutionTime = 42.72 s  ClockTime = 43 s

Region: oil Courant Number mean: 0.000159769 max: 0.384704
Region: sphere Diffusion Number mean: 1.55168 max: 10.0185
deltaT = 0.0206017
Time = 0.393067


Solving for fluid region oil
diagonal:  Solving for rho, Initial residual = 0, Final residual = 0, No Iterations 0
DILUPBiCGStab:  Solving for Ux, Initial residual = 0.0458246, Final residual = 1.01227e-07, No Iterations 1
DILUPBiCGStab:  Solving for Uy, Initial residual = 0.00386586, Final residual = 5.66757e-06, No Iterations 1
DILUPBiCGStab:  Solving for Uz, Initial residual = 0.045968, Final residual = 1.01113e-07, No Iterations 1
DILUPBiCGStab:  Solving for h, Initial residual = 0.000152822, Final residual = 7.69468e-08, No Iterations 1
Min/max T:300 494.657
GAMG:  Solving for p_rgh, Initial residual = 0.0109378, Final residual = 6.93488e-06, No Iterations 7
GAMG:  Solving for p_rgh, Initial residual = 8.1542e-05, Final residual = 6.04734e-06, No Iterations 2
diagonal:  Solving for rho, Initial residual = 0, Final residual = 0, No Iterations 0
time step continuity errors (oil): sum local = 1.80179e-07, global = 1.70498e-07, cumulative = 4.20421e-06

Solving for solid region sphere
DICPCG:  Solving for h, Initial residual = 0.0986131, Final residual = 5.32448e-10, No Iterations 15
Min/max T:494.575 497.691
ExecutionTime = 43.86 s  ClockTime = 44 s

Region: oil Courant Number mean: 0.000163983 max: 0.412866
Region: sphere Diffusion Number mean: 1.55178 max: 10.0191
deltaT = 0.0206017
Time = 0.413669


Solving for fluid region oil
diagonal:  Solving for rho, Initial residual = 0, Final residual = 0, No Iterations 0
DILUPBiCGStab:  Solving for Ux, Initial residual = 0.0443483, Final residual = 9.84214e-08, No Iterations 1
DILUPBiCGStab:  Solving for Uy, Initial residual = 0.00356815, Final residual = 5.2817e-06, No Iterations 1
DILUPBiCGStab:  Solving for Uz, Initial residual = 0.0444878, Final residual = 9.81915e-08, No Iterations 1
DILUPBiCGStab:  Solving for h, Initial residual = 0.00014404, Final residual = 7.94022e-08, No Iterations 1
Min/max T:300 494.505
GAMG:  Solving for p_rgh, Initial residual = 0.0097646, Final residual = 6.64439e-06, No Iterations 7
GAMG:  Solving for p_rgh, Initial residual = 7.732e-05, Final residual = 5.77923e-06, No Iterations 2
diagonal:  Solving for rho, Initial residual = 0, Final residual = 0, No Iterations 0
time step continuity errors (oil): sum local = 1.76421e-07, global = 1.66915e-07, cumulative = 4.37112e-06

Solving for solid region sphere
DICPCG:  Solving for h, Initial residual = 0.0982871, Final residual = 5.30664e-10, No Iterations 15
Min/max T:494.417 497.493
ExecutionTime = 44.91 s  ClockTime = 45 s

Region: oil Courant Number mean: 0.000168501 max: 0.440928
Region: sphere Diffusion Number mean: 1.55189 max: 10.0197
deltaT = 0.0206017
Time = 0.434271


Solving for fluid region oil
diagonal:  Solving for rho, Initial residual = 0, Final residual = 0, No Iterations 0
DILUPBiCGStab:  Solving for Ux, Initial residual = 0.0428952, Final residual = 9.56042e-08, No Iterations 1
DILUPBiCGStab:  Solving for Uy, Initial residual = 0.00330582, Final residual = 4.9417e-06, No Iterations 1
DILUPBiCGStab:  Solving for Uz, Initial residual = 0.0430307, Final residual = 9.52886e-08, No Iterations 1
DILUPBiCGStab:  Solving for h, Initial residual = 0.000136169, Final residual = 8.16459e-08, No Iterations 1
Min/max T:300 494.356
GAMG:  Solving for p_rgh, Initial residual = 0.00871744, Final residual = 6.38442e-06, No Iterations 7
GAMG:  Solving for p_rgh, Initial residual = 7.35152e-05, Final residual = 5.53934e-06, No Iterations 2
diagonal:  Solving for rho, Initial residual = 0, Final residual = 0, No Iterations 0
time step continuity errors (oil): sum local = 1.7283e-07, global = 1.63491e-07, cumulative = 4.53461e-06

Solving for solid region sphere
DICPCG:  Solving for h, Initial residual = 0.0980512, Final residual = 5.29529e-10, No Iterations 15
Min/max T:494.263 497.296
ExecutionTime = 46.17 s  ClockTime = 47 s

Region: oil Courant Number mean: 0.00017331 max: 0.468836
Region: sphere Diffusion Number mean: 1.55199 max: 10.0203
deltaT = 0.0206017
Time = 0.454872


Solving for fluid region oil
diagonal:  Solving for rho, Initial residual = 0, Final residual = 0, No Iterations 0
DILUPBiCGStab:  Solving for Ux, Initial residual = 0.0414685, Final residual = 9.27833e-08, No Iterations 1
DILUPBiCGStab:  Solving for Uy, Initial residual = 0.00307332, Final residual = 4.64188e-06, No Iterations 1
DILUPBiCGStab:  Solving for Uz, Initial residual = 0.0415997, Final residual = 9.23863e-08, No Iterations 1
DILUPBiCGStab:  Solving for h, Initial residual = 0.000129078, Final residual = 8.36852e-08, No Iterations 1
Min/max T:300 494.211
GAMG:  Solving for p_rgh, Initial residual = 0.00777957, Final residual = 6.15135e-06, No Iterations 7
GAMG:  Solving for p_rgh, Initial residual = 7.00631e-05, Final residual = 5.3266e-06, No Iterations 2
diagonal:  Solving for rho, Initial residual = 0, Final residual = 0, No Iterations 0
time step continuity errors (oil): sum local = 1.69402e-07, global = 1.60217e-07, cumulative = 4.69483e-06

Solving for solid region sphere
DICPCG:  Solving for h, Initial residual = 0.0978903, Final residual = 5.28926e-10, No Iterations 15
Min/max T:494.11 497.101
ExecutionTime = 47.32 s  ClockTime = 48 s

Region: oil Courant Number mean: 0.000178382 max: 0.496565
Region: sphere Diffusion Number mean: 1.55209 max: 10.0209
deltaT = 0.0206017
Time = 0.475474


Solving for fluid region oil
diagonal:  Solving for rho, Initial residual = 0, Final residual = 0, No Iterations 0
DILUPBiCGStab:  Solving for Ux, Initial residual = 0.0400727, Final residual = 8.99475e-08, No Iterations 1
DILUPBiCGStab:  Solving for Uy, Initial residual = 0.00286653, Final residual = 4.37553e-06, No Iterations 1
DILUPBiCGStab:  Solving for Uz, Initial residual = 0.0402007, Final residual = 8.94824e-08, No Iterations 1
DILUPBiCGStab:  Solving for h, Initial residual = 0.000122663, Final residual = 8.5537e-08, No Iterations 1
Min/max T:300 494.069
GAMG:  Solving for p_rgh, Initial residual = 0.00695924, Final residual = 5.94203e-06, No Iterations 7
GAMG:  Solving for p_rgh, Initial residual = 6.69051e-05, Final residual = 5.13626e-06, No Iterations 2
diagonal:  Solving for rho, Initial residual = 0, Final residual = 0, No Iterations 0
time step continuity errors (oil): sum local = 1.66126e-07, global = 1.57085e-07, cumulative = 4.85191e-06

Solving for solid region sphere
DICPCG:  Solving for h, Initial residual = 0.0977921, Final residual = 5.28781e-10, No Iterations 15
Min/max T:493.96 496.908
ExecutionTime = 48.47 s  ClockTime = 49 s

Region: oil Courant Number mean: 0.000183696 max: 0.524073
Region: sphere Diffusion Number mean: 1.55219 max: 10.0214
deltaT = 0.0206017
Time = 0.496076


Solving for fluid region oil
diagonal:  Solving for rho, Initial residual = 0, Final residual = 0, No Iterations 0
DILUPBiCGStab:  Solving for Ux, Initial residual = 0.0387111, Final residual = 8.71047e-08, No Iterations 1
DILUPBiCGStab:  Solving for Uy, Initial residual = 0.00268174, Final residual = 4.13794e-06, No Iterations 1
DILUPBiCGStab:  Solving for Uz, Initial residual = 0.0388343, Final residual = 8.65492e-08, No Iterations 1
DILUPBiCGStab:  Solving for h, Initial residual = 0.000116835, Final residual = 8.72249e-08, No Iterations 1
Min/max T:300 493.929
GAMG:  Solving for p_rgh, Initial residual = 0.0062705, Final residual = 5.75275e-06, No Iterations 7
GAMG:  Solving for p_rgh, Initial residual = 6.40198e-05, Final residual = 4.96739e-06, No Iterations 2
diagonal:  Solving for rho, Initial residual = 0, Final residual = 0, No Iterations 0
time step continuity errors (oil): sum local = 1.62996e-07, global = 1.54087e-07, cumulative = 5.006e-06

Solving for solid region sphere
DICPCG:  Solving for h, Initial residual = 0.097746, Final residual = 5.2901e-10, No Iterations 15
Min/max T:493.813 496.718
ExecutionTime = 49.6 s  ClockTime = 50 s

Region: oil Courant Number mean: 0.000189235 max: 0.551328
Region: sphere Diffusion Number mean: 1.55229 max: 10.022
deltaT = 0.0206017
Time = 0.516677


Solving for fluid region oil
diagonal:  Solving for rho, Initial residual = 0, Final residual = 0, No Iterations 0
DILUPBiCGStab:  Solving for Ux, Initial residual = 0.0373876, Final residual = 8.42163e-08, No Iterations 1
DILUPBiCGStab:  Solving for Uy, Initial residual = 0.00251609, Final residual = 3.92594e-06, No Iterations 1
DILUPBiCGStab:  Solving for Uz, Initial residual = 0.037506, Final residual = 8.35939e-08, No Iterations 1
DILUPBiCGStab:  Solving for h, Initial residual = 0.000111521, Final residual = 8.87946e-08, No Iterations 1
Min/max T:300 493.793
GAMG:  Solving for p_rgh, Initial residual = 0.00571563, Final residual = 9.74902e-06, No Iterations 6
GAMG:  Solving for p_rgh, Initial residual = 6.54451e-05, Final residual = 6.03807e-06, No Iterations 2
diagonal:  Solving for rho, Initial residual = 0, Final residual = 0, No Iterations 0
time step continuity errors (oil): sum local = 1.62233e-07, global = 1.51217e-07, cumulative = 5.15722e-06

Solving for solid region sphere
DICPCG:  Solving for h, Initial residual = 0.0977434, Final residual = 5.29557e-10, No Iterations 15
Min/max T:493.667 496.53
ExecutionTime = 50.64 s  ClockTime = 51 s

Region: oil Courant Number mean: 0.000195017 max: 0.578293
Region: sphere Diffusion Number mean: 1.55238 max: 10.0225
deltaT = 0.0206017
Time = 0.537279


Solving for fluid region oil
diagonal:  Solving for rho, Initial residual = 0, Final residual = 0, No Iterations 0
DILUPBiCGStab:  Solving for Ux, Initial residual = 0.0361662, Final residual = 8.13772e-08, No Iterations 1
DILUPBiCGStab:  Solving for Uy, Initial residual = 0.00237213, Final residual = 3.73794e-06, No Iterations 1
DILUPBiCGStab:  Solving for Uz, Initial residual = 0.0362875, Final residual = 8.07117e-08, No Iterations 1
DILUPBiCGStab:  Solving for h, Initial residual = 0.00010666, Final residual = 9.03081e-08, No Iterations 1
Min/max T:300 493.659
GAMG:  Solving for p_rgh, Initial residual = 0.00526171, Final residual = 9.68993e-06, No Iterations 6
GAMG:  Solving for p_rgh, Initial residual = 6.19829e-05, Final residual = 5.96264e-06, No Iterations 2
diagonal:  Solving for rho, Initial residual = 0, Final residual = 0, No Iterations 0
time step continuity errors (oil): sum local = 1.59519e-07, global = 1.48469e-07, cumulative = 5.30569e-06

Solving for solid region sphere
DICPCG:  Solving for h, Initial residual = 0.0977768, Final residual = 5.3037e-10, No Iterations 15
Min/max T:493.522 496.345
ExecutionTime = 51.77 s  ClockTime = 53 s

Region: oil Courant Number mean: 0.000200977 max: 0.604959
Region: sphere Diffusion Number mean: 1.55248 max: 10.0231
deltaT = 0.0206017
Time = 0.557881


Solving for fluid region oil
diagonal:  Solving for rho, Initial residual = 0, Final residual = 0, No Iterations 0
DILUPBiCGStab:  Solving for Ux, Initial residual = 0.034872, Final residual = 7.83386e-08, No Iterations 1
DILUPBiCGStab:  Solving for Uy, Initial residual = 0.0022346, Final residual = 3.56525e-06, No Iterations 1
DILUPBiCGStab:  Solving for Uz, Initial residual = 0.0349849, Final residual = 7.76462e-08, No Iterations 1
DILUPBiCGStab:  Solving for h, Initial residual = 0.000102198, Final residual = 9.18011e-08, No Iterations 1
Min/max T:300 493.527
GAMG:  Solving for p_rgh, Initial residual = 0.00487299, Final residual = 9.28735e-06, No Iterations 6
GAMG:  Solving for p_rgh, Initial residual = 6.00621e-05, Final residual = 5.76399e-06, No Iterations 2
diagonal:  Solving for rho, Initial residual = 0, Final residual = 0, No Iterations 0
time step continuity errors (oil): sum local = 1.5667e-07, global = 1.45835e-07, cumulative = 5.45152e-06

Solving for solid region sphere
DICPCG:  Solving for h, Initial residual = 0.0978398, Final residual = 5.31405e-10, No Iterations 15
Min/max T:493.379 496.163
ExecutionTime = 53.02 s  ClockTime = 54 s

Region: oil Courant Number mean: 0.00020713 max: 0.63129
Region: sphere Diffusion Number mean: 1.55257 max: 10.0236
deltaT = 0.0206017
Time = 0.578483


Solving for fluid region oil
diagonal:  Solving for rho, Initial residual = 0, Final residual = 0, No Iterations 0
DILUPBiCGStab:  Solving for Ux, Initial residual = 0.0336632, Final residual = 7.54064e-08, No Iterations 1
DILUPBiCGStab:  Solving for Uy, Initial residual = 0.00211173, Final residual = 3.41024e-06, No Iterations 1
DILUPBiCGStab:  Solving for Uz, Initial residual = 0.033771, Final residual = 7.46789e-08, No Iterations 1
DILUPBiCGStab:  Solving for h, Initial residual = 9.80913e-05, Final residual = 9.32718e-08, No Iterations 1
Min/max T:300 493.398
GAMG:  Solving for p_rgh, Initial residual = 0.00453577, Final residual = 9.03926e-06, No Iterations 6
GAMG:  Solving for p_rgh, Initial residual = 5.78916e-05, Final residual = 5.60994e-06, No Iterations 2
diagonal:  Solving for rho, Initial residual = 0, Final residual = 0, No Iterations 0
time step continuity errors (oil): sum local = 1.53993e-07, global = 1.4331e-07, cumulative = 5.59483e-06

Solving for solid region sphere
DICPCG:  Solving for h, Initial residual = 0.0979267, Final residual = 5.32636e-10, No Iterations 15
Min/max T:493.238 495.983
ExecutionTime = 54.3 s  ClockTime = 55 s

Region: oil Courant Number mean: 0.000213474 max: 0.657263
Region: sphere Diffusion Number mean: 1.55266 max: 10.0241
deltaT = 0.0206017
Time = 0.599084


Solving for fluid region oil
diagonal:  Solving for rho, Initial residual = 0, Final residual = 0, No Iterations 0
DILUPBiCGStab:  Solving for Ux, Initial residual = 0.0325062, Final residual = 7.24521e-08, No Iterations 1
DILUPBiCGStab:  Solving for Uy, Initial residual = 0.00200107, Final residual = 3.26944e-06, No Iterations 1
DILUPBiCGStab:  Solving for Uz, Initial residual = 0.0326113, Final residual = 7.17136e-08, No Iterations 1
DILUPBiCGStab:  Solving for h, Initial residual = 9.43016e-05, Final residual = 9.47013e-08, No Iterations 1
Min/max T:300 493.27
GAMG:  Solving for p_rgh, Initial residual = 0.00423717, Final residual = 8.81888e-06, No Iterations 6
GAMG:  Solving for p_rgh, Initial residual = 5.58329e-05, Final residual = 5.48129e-06, No Iterations 2
diagonal:  Solving for rho, Initial residual = 0, Final residual = 0, No Iterations 0
time step continuity errors (oil): sum local = 1.5145e-07, global = 1.40889e-07, cumulative = 5.73572e-06

Solving for solid region sphere
DICPCG:  Solving for h, Initial residual = 0.0980327, Final residual = 5.34022e-10, No Iterations 15
Min/max T:493.098 495.807
ExecutionTime = 55.52 s  ClockTime = 56 s

Region: oil Courant Number mean: 0.000220008 max: 0.682858
Region: sphere Diffusion Number mean: 1.55275 max: 10.0246
deltaT = 0.0206017
Time = 0.619686


Solving for fluid region oil
diagonal:  Solving for rho, Initial residual = 0, Final residual = 0, No Iterations 0
DILUPBiCGStab:  Solving for Ux, Initial residual = 0.0313954, Final residual = 6.95464e-08, No Iterations 1
DILUPBiCGStab:  Solving for Uy, Initial residual = 0.00190026, Final residual = 3.1409e-06, No Iterations 1
DILUPBiCGStab:  Solving for Uz, Initial residual = 0.0314958, Final residual = 6.87744e-08, No Iterations 1
DILUPBiCGStab:  Solving for h, Initial residual = 9.07957e-05, Final residual = 9.60959e-08, No Iterations 1
Min/max T:300 493.145
GAMG:  Solving for p_rgh, Initial residual = 0.00396762, Final residual = 8.61967e-06, No Iterations 6
GAMG:  Solving for p_rgh, Initial residual = 5.39256e-05, Final residual = 5.36441e-06, No Iterations 2
diagonal:  Solving for rho, Initial residual = 0, Final residual = 0, No Iterations 0
time step continuity errors (oil): sum local = 1.49013e-07, global = 1.38567e-07, cumulative = 5.87429e-06

Solving for solid region sphere
DICPCG:  Solving for h, Initial residual = 0.0981538, Final residual = 5.35547e-10, No Iterations 15
Min/max T:492.959 495.633
ExecutionTime = 56.63 s  ClockTime = 57 s

Region: oil Courant Number mean: 0.000226742 max: 0.708054
Region: sphere Diffusion Number mean: 1.55284 max: 10.0251
deltaT = 0.0206017
Time = 0.640288


Solving for fluid region oil
diagonal:  Solving for rho, Initial residual = 0, Final residual = 0, No Iterations 0
DILUPBiCGStab:  Solving for Ux, Initial residual = 0.030327, Final residual = 6.66794e-08, No Iterations 1
DILUPBiCGStab:  Solving for Uy, Initial residual = 0.00180813, Final residual = 3.02328e-06, No Iterations 1
DILUPBiCGStab:  Solving for Uz, Initial residual = 0.0304235, Final residual = 6.58915e-08, No Iterations 1
DILUPBiCGStab:  Solving for h, Initial residual = 8.75448e-05, Final residual = 9.74617e-08, No Iterations 1
Min/max T:300 493.022
GAMG:  Solving for p_rgh, Initial residual = 0.00372025, Final residual = 8.43583e-06, No Iterations 6
GAMG:  Solving for p_rgh, Initial residual = 5.21453e-05, Final residual = 5.25744e-06, No Iterations 2
diagonal:  Solving for rho, Initial residual = 0, Final residual = 0, No Iterations 0
time step continuity errors (oil): sum local = 1.46676e-07, global = 1.36338e-07, cumulative = 6.01063e-06

Solving for solid region sphere
DICPCG:  Solving for h, Initial residual = 0.0982856, Final residual = 5.37182e-10, No Iterations 15
Min/max T:492.821 495.463
ExecutionTime = 57.85 s  ClockTime = 59 s

Region: oil Courant Number mean: 0.000233682 max: 0.732835
Region: sphere Diffusion Number mean: 1.55292 max: 10.0256
deltaT = 0.0206017
Time = 0.660889


Solving for fluid region oil
diagonal:  Solving for rho, Initial residual = 0, Final residual = 0, No Iterations 0
DILUPBiCGStab:  Solving for Ux, Initial residual = 0.0293005, Final residual = 6.39077e-08, No Iterations 1
DILUPBiCGStab:  Solving for Uy, Initial residual = 0.00172376, Final residual = 2.9154e-06, No Iterations 1
DILUPBiCGStab:  Solving for Uz, Initial residual = 0.0293921, Final residual = 6.31056e-08, No Iterations 1
DILUPBiCGStab:  Solving for h, Initial residual = 8.45239e-05, Final residual = 9.87849e-08, No Iterations 1
Min/max T:300 492.901
GAMG:  Solving for p_rgh, Initial residual = 0.00350607, Final residual = 8.27095e-06, No Iterations 6
GAMG:  Solving for p_rgh, Initial residual = 5.04809e-05, Final residual = 5.15995e-06, No Iterations 2
diagonal:  Solving for rho, Initial residual = 0, Final residual = 0, No Iterations 0
time step continuity errors (oil): sum local = 1.44434e-07, global = 1.342e-07, cumulative = 6.14483e-06

Solving for solid region sphere
DICPCG:  Solving for h, Initial residual = 0.0984247, Final residual = 5.38903e-10, No Iterations 15
Min/max T:492.684 495.295
ExecutionTime = 59.09 s  ClockTime = 60 s

Region: oil Courant Number mean: 0.000240817 max: 0.757184
Region: sphere Diffusion Number mean: 1.55301 max: 10.0261
deltaT = 0.0206017
Time = 0.681491


Solving for fluid region oil
diagonal:  Solving for rho, Initial residual = 0, Final residual = 0, No Iterations 0
DILUPBiCGStab:  Solving for Ux, Initial residual = 0.0283139, Final residual = 6.12896e-08, No Iterations 1
DILUPBiCGStab:  Solving for Uy, Initial residual = 0.00164628, Final residual = 2.81608e-06, No Iterations 1
DILUPBiCGStab:  Solving for Uz, Initial residual = 0.0283996, Final residual = 6.04728e-08, No Iterations 1
DILUPBiCGStab:  Solving for h, Initial residual = 8.17112e-05, Final residual = 1.00066e-07, No Iterations 1
Min/max T:300 492.781
GAMG:  Solving for p_rgh, Initial residual = 0.00338445, Final residual = 8.11824e-06, No Iterations 6
GAMG:  Solving for p_rgh, Initial residual = 4.89248e-05, Final residual = 5.07105e-06, No Iterations 2
diagonal:  Solving for rho, Initial residual = 0, Final residual = 0, No Iterations 0
time step continuity errors (oil): sum local = 1.42283e-07, global = 1.32146e-07, cumulative = 6.27697e-06

Solving for solid region sphere
DICPCG:  Solving for h, Initial residual = 0.0985686, Final residual = 5.40682e-10, No Iterations 15
Min/max T:492.549 495.13
ExecutionTime = 60.43 s  ClockTime = 61 s

Region: oil Courant Number mean: 0.000248143 max: 0.781085
Region: sphere Diffusion Number mean: 1.55309 max: 10.0266
deltaT = 0.0206017
Time = 0.702093


Solving for fluid region oil
diagonal:  Solving for rho, Initial residual = 0, Final residual = 0, No Iterations 0
DILUPBiCGStab:  Solving for Ux, Initial residual = 0.0273651, Final residual = 5.90124e-08, No Iterations 1
DILUPBiCGStab:  Solving for Uy, Initial residual = 0.00157497, Final residual = 2.72436e-06, No Iterations 1
DILUPBiCGStab:  Solving for Uz, Initial residual = 0.0274468, Final residual = 5.8152e-08, No Iterations 1
DILUPBiCGStab:  Solving for h, Initial residual = 7.90874e-05, Final residual = 1.01284e-07, No Iterations 1
Min/max T:300 492.664
GAMG:  Solving for p_rgh, Initial residual = 0.00329857, Final residual = 7.97955e-06, No Iterations 6
GAMG:  Solving for p_rgh, Initial residual = 4.74733e-05, Final residual = 4.99007e-06, No Iterations 2
diagonal:  Solving for rho, Initial residual = 0, Final residual = 0, No Iterations 0
time step continuity errors (oil): sum local = 1.4022e-07, global = 1.30175e-07, cumulative = 6.40715e-06

Solving for solid region sphere
DICPCG:  Solving for h, Initial residual = 0.0987144, Final residual = 5.425e-10, No Iterations 15
Min/max T:492.414 494.968
ExecutionTime = 61.67 s  ClockTime = 63 s

Region: oil Courant Number mean: 0.000255662 max: 0.804529
Region: sphere Diffusion Number mean: 1.55318 max: 10.0271
deltaT = 0.0206017
Time = 0.722694


Solving for fluid region oil
diagonal:  Solving for rho, Initial residual = 0, Final residual = 0, No Iterations 0
DILUPBiCGStab:  Solving for Ux, Initial residual = 0.0264552, Final residual = 5.73722e-08, No Iterations 1
DILUPBiCGStab:  Solving for Uy, Initial residual = 0.00150917, Final residual = 2.63928e-06, No Iterations 1
DILUPBiCGStab:  Solving for Uz, Initial residual = 0.026533, Final residual = 5.63984e-08, No Iterations 1
DILUPBiCGStab:  Solving for h, Initial residual = 7.66356e-05, Final residual = 1.02453e-07, No Iterations 1
Min/max T:300 492.548
GAMG:  Solving for p_rgh, Initial residual = 0.00323167, Final residual = 7.85349e-06, No Iterations 6
GAMG:  Solving for p_rgh, Initial residual = 4.61084e-05, Final residual = 4.91738e-06, No Iterations 2
diagonal:  Solving for rho, Initial residual = 0, Final residual = 0, No Iterations 0
time step continuity errors (oil): sum local = 1.38241e-07, global = 1.28281e-07, cumulative = 6.53543e-06

Solving for solid region sphere
DICPCG:  Solving for h, Initial residual = 0.0988591, Final residual = 5.44359e-10, No Iterations 15
Min/max T:492.28 494.808
ExecutionTime = 62.88 s  ClockTime = 64 s

Region: oil Courant Number mean: 0.000263376 max: 0.827503
Region: sphere Diffusion Number mean: 1.55326 max: 10.0276
deltaT = 0.0206017
Time = 0.743296


Solving for fluid region oil
diagonal:  Solving for rho, Initial residual = 0, Final residual = 0, No Iterations 0
DILUPBiCGStab:  Solving for Ux, Initial residual = 0.025584, Final residual = 5.65336e-08, No Iterations 1
DILUPBiCGStab:  Solving for Uy, Initial residual = 0.00144838, Final residual = 2.5603e-06, No Iterations 1
DILUPBiCGStab:  Solving for Uz, Initial residual = 0.0256593, Final residual = 5.54605e-08, No Iterations 1
DILUPBiCGStab:  Solving for h, Initial residual = 7.43406e-05, Final residual = 1.03568e-07, No Iterations 1
Min/max T:300 492.433
GAMG:  Solving for p_rgh, Initial residual = 0.00317317, Final residual = 7.73584e-06, No Iterations 6
GAMG:  Solving for p_rgh, Initial residual = 4.48357e-05, Final residual = 4.85002e-06, No Iterations 2
diagonal:  Solving for rho, Initial residual = 0, Final residual = 0, No Iterations 0
time step continuity errors (oil): sum local = 1.36339e-07, global = 1.26461e-07, cumulative = 6.66189e-06

Solving for solid region sphere
DICPCG:  Solving for h, Initial residual = 0.0990004, Final residual = 5.46229e-10, No Iterations 15
Min/max T:492.147 494.651
ExecutionTime = 64.09 s  ClockTime = 65 s

Region: oil Courant Number mean: 0.000271276 max: 0.849997
Region: sphere Diffusion Number mean: 1.55334 max: 10.0281
deltaT = 0.0206017
Time = 0.763898


Solving for fluid region oil
diagonal:  Solving for rho, Initial residual = 0, Final residual = 0, No Iterations 0
DILUPBiCGStab:  Solving for Ux, Initial residual = 0.0247527, Final residual = 5.63034e-08, No Iterations 1
DILUPBiCGStab:  Solving for Uy, Initial residual = 0.00139208, Final residual = 2.4869e-06, No Iterations 1
DILUPBiCGStab:  Solving for Uz, Initial residual = 0.0248255, Final residual = 5.51611e-08, No Iterations 1
DILUPBiCGStab:  Solving for h, Initial residual = 7.21892e-05, Final residual = 1.04617e-07, No Iterations 1
Min/max T:300 492.32
GAMG:  Solving for p_rgh, Initial residual = 0.00312371, Final residual = 7.62933e-06, No Iterations 6
GAMG:  Solving for p_rgh, Initial residual = 4.36451e-05, Final residual = 9.89963e-06, No Iterations 1
diagonal:  Solving for rho, Initial residual = 0, Final residual = 0, No Iterations 0
time step continuity errors (oil): sum local = 1.44973e-07, global = 1.24713e-07, cumulative = 6.7866e-06

Solving for solid region sphere
DICPCG:  Solving for h, Initial residual = 0.0991353, Final residual = 5.48091e-10, No Iterations 15
Min/max T:492.014 494.497
ExecutionTime = 65.05 s  ClockTime = 66 s

Region: oil Courant Number mean: 0.000279381 max: 0.871978
Region: sphere Diffusion Number mean: 1.55342 max: 10.0285
deltaT = 0.0206017
Time = 0.7845


Solving for fluid region oil
diagonal:  Solving for rho, Initial residual = 0, Final residual = 0, No Iterations 0
DILUPBiCGStab:  Solving for Ux, Initial residual = 0.0241998, Final residual = 5.67516e-08, No Iterations 1
DILUPBiCGStab:  Solving for Uy, Initial residual = 0.00134283, Final residual = 2.42273e-06, No Iterations 1
DILUPBiCGStab:  Solving for Uz, Initial residual = 0.0242813, Final residual = 5.55853e-08, No Iterations 1
DILUPBiCGStab:  Solving for h, Initial residual = 7.01707e-05, Final residual = 1.05601e-07, No Iterations 1
Min/max T:300 492.209
GAMG:  Solving for p_rgh, Initial residual = 0.00308093, Final residual = 7.9056e-06, No Iterations 6
GAMG:  Solving for p_rgh, Initial residual = 4.13578e-05, Final residual = 9.87276e-06, No Iterations 1
diagonal:  Solving for rho, Initial residual = 0, Final residual = 0, No Iterations 0
time step continuity errors (oil): sum local = 1.43325e-07, global = 1.23035e-07, cumulative = 6.90964e-06

Solving for solid region sphere
DICPCG:  Solving for h, Initial residual = 0.099261, Final residual = 5.49927e-10, No Iterations 15
Min/max T:491.883 494.345
ExecutionTime = 66.16 s  ClockTime = 67 s

Region: oil Courant Number mean: 0.000287606 max: 0.89349
Region: sphere Diffusion Number mean: 1.5535 max: 10.029
deltaT = 0.0206017
Time = 0.805101


Solving for fluid region oil
diagonal:  Solving for rho, Initial residual = 0, Final residual = 0, No Iterations 0
DILUPBiCGStab:  Solving for Ux, Initial residual = 0.0233809, Final residual = 5.69412e-08, No Iterations 1
DILUPBiCGStab:  Solving for Uy, Initial residual = 0.0012924, Final residual = 2.35643e-06, No Iterations 1
DILUPBiCGStab:  Solving for Uz, Initial residual = 0.023454, Final residual = 5.57522e-08, No Iterations 1
DILUPBiCGStab:  Solving for h, Initial residual = 6.8272e-05, Final residual = 1.0652e-07, No Iterations 1
Min/max T:300 492.099
GAMG:  Solving for p_rgh, Initial residual = 0.00303635, Final residual = 7.64272e-06, No Iterations 6
GAMG:  Solving for p_rgh, Initial residual = 4.08596e-05, Final residual = 9.72609e-06, No Iterations 1
diagonal:  Solving for rho, Initial residual = 0, Final residual = 0, No Iterations 0
time step continuity errors (oil): sum local = 1.4148e-07, global = 1.2142e-07, cumulative = 7.03106e-06

Solving for solid region sphere
DICPCG:  Solving for h, Initial residual = 0.0993765, Final residual = 5.51713e-10, No Iterations 15
Min/max T:491.752 494.195
ExecutionTime = 67.24 s  ClockTime = 68 s

Region: oil Courant Number mean: 0.000295981 max: 0.914501
Region: sphere Diffusion Number mean: 1.55358 max: 10.0295
deltaT = 0.0206017
Time = 0.825703


Solving for fluid region oil
diagonal:  Solving for rho, Initial residual = 0, Final residual = 0, No Iterations 0
DILUPBiCGStab:  Solving for Ux, Initial residual = 0.0226652, Final residual = 5.73922e-08, No Iterations 1
DILUPBiCGStab:  Solving for Uy, Initial residual = 0.00124654, Final residual = 2.29703e-06, No Iterations 1
DILUPBiCGStab:  Solving for Uz, Initial residual = 0.0227345, Final residual = 5.62201e-08, No Iterations 1
DILUPBiCGStab:  Solving for h, Initial residual = 6.64855e-05, Final residual = 1.07385e-07, No Iterations 1
Min/max T:300 491.991
GAMG:  Solving for p_rgh, Initial residual = 0.00299528, Final residual = 7.55242e-06, No Iterations 6
GAMG:  Solving for p_rgh, Initial residual = 3.98317e-05, Final residual = 9.5521e-06, No Iterations 1
diagonal:  Solving for rho, Initial residual = 0, Final residual = 0, No Iterations 0
time step continuity errors (oil): sum local = 1.39629e-07, global = 1.19868e-07, cumulative = 7.15093e-06

Solving for solid region sphere
DICPCG:  Solving for h, Initial residual = 0.0994799, Final residual = 5.53452e-10, No Iterations 15
Min/max T:491.622 494.047
ExecutionTime = 68.29 s  ClockTime = 69 s

Region: oil Courant Number mean: 0.000304499 max: 0.935007
Region: sphere Diffusion Number mean: 1.55365 max: 10.0299
deltaT = 0.0206017
Time = 0.846305


Solving for fluid region oil
diagonal:  Solving for rho, Initial residual = 0, Final residual = 0, No Iterations 0
DILUPBiCGStab:  Solving for Ux, Initial residual = 0.0219911, Final residual = 5.79082e-08, No Iterations 1
DILUPBiCGStab:  Solving for Uy, Initial residual = 0.00120439, Final residual = 2.24057e-06, No Iterations 1
DILUPBiCGStab:  Solving for Uz, Initial residual = 0.0220591, Final residual = 5.67667e-08, No Iterations 1
DILUPBiCGStab:  Solving for h, Initial residual = 6.48019e-05, Final residual = 1.08196e-07, No Iterations 1
Min/max T:300 491.884
GAMG:  Solving for p_rgh, Initial residual = 0.00295785, Final residual = 7.46428e-06, No Iterations 6
GAMG:  Solving for p_rgh, Initial residual = 3.89968e-05, Final residual = 9.45363e-06, No Iterations 1
diagonal:  Solving for rho, Initial residual = 0, Final residual = 0, No Iterations 0
time step continuity errors (oil): sum local = 1.37981e-07, global = 1.18375e-07, cumulative = 7.2693e-06

Solving for solid region sphere
DICPCG:  Solving for h, Initial residual = 0.0995688, Final residual = 5.55124e-10, No Iterations 15
Min/max T:491.492 493.902
ExecutionTime = 69.46 s  ClockTime = 70 s

Region: oil Courant Number mean: 0.000313154 max: 0.955006
Region: sphere Diffusion Number mean: 1.55373 max: 10.0304
deltaT = 0.0206017
Time = 0.866906


Solving for fluid region oil
diagonal:  Solving for rho, Initial residual = 0, Final residual = 0, No Iterations 0
DILUPBiCGStab:  Solving for Ux, Initial residual = 0.0213601, Final residual = 5.84441e-08, No Iterations 1
DILUPBiCGStab:  Solving for Uy, Initial residual = 0.00116516, Final residual = 2.18741e-06, No Iterations 1
DILUPBiCGStab:  Solving for Uz, Initial residual = 0.0214254, Final residual = 5.73071e-08, No Iterations 1
DILUPBiCGStab:  Solving for h, Initial residual = 6.32136e-05, Final residual = 1.08956e-07, No Iterations 1
Min/max T:300 491.78
GAMG:  Solving for p_rgh, Initial residual = 0.00292487, Final residual = 7.39694e-06, No Iterations 6
GAMG:  Solving for p_rgh, Initial residual = 3.81598e-05, Final residual = 9.35461e-06, No Iterations 1
diagonal:  Solving for rho, Initial residual = 0, Final residual = 0, No Iterations 0
time step continuity errors (oil): sum local = 1.36378e-07, global = 1.16938e-07, cumulative = 7.38624e-06

Solving for solid region sphere
DICPCG:  Solving for h, Initial residual = 0.0996403, Final residual = 5.5671e-10, No Iterations 15
Min/max T:491.364 493.759
ExecutionTime = 70.58 s  ClockTime = 72 s

Region: oil Courant Number mean: 0.000321936 max: 0.974498
Region: sphere Diffusion Number mean: 1.55381 max: 10.0308
deltaT = 0.0206017
Time = 0.887508


Solving for fluid region oil
diagonal:  Solving for rho, Initial residual = 0, Final residual = 0, No Iterations 0
DILUPBiCGStab:  Solving for Ux, Initial residual = 0.0207626, Final residual = 5.89567e-08, No Iterations 1
DILUPBiCGStab:  Solving for Uy, Initial residual = 0.00112833, Final residual = 2.13724e-06, No Iterations 1
DILUPBiCGStab:  Solving for Uz, Initial residual = 0.0208267, Final residual = 5.78397e-08, No Iterations 1
DILUPBiCGStab:  Solving for h, Initial residual = 6.17137e-05, Final residual = 1.09666e-07, No Iterations 1
Min/max T:300 491.677
GAMG:  Solving for p_rgh, Initial residual = 0.00289187, Final residual = 7.32833e-06, No Iterations 6
GAMG:  Solving for p_rgh, Initial residual = 3.74004e-05, Final residual = 9.26713e-06, No Iterations 1
diagonal:  Solving for rho, Initial residual = 0, Final residual = 0, No Iterations 0
time step continuity errors (oil): sum local = 1.34845e-07, global = 1.15556e-07, cumulative = 7.5018e-06

Solving for solid region sphere
DICPCG:  Solving for h, Initial residual = 0.0996923, Final residual = 5.58214e-10, No Iterations 15
Min/max T:491.235 493.618
ExecutionTime = 71.84 s  ClockTime = 73 s

Region: oil Courant Number mean: 0.000330838 max: 0.993482
Region: sphere Diffusion Number mean: 1.55388 max: 10.0313
deltaT = 0.0206017
Time = 0.90811


Solving for fluid region oil
diagonal:  Solving for rho, Initial residual = 0, Final residual = 0, No Iterations 0
DILUPBiCGStab:  Solving for Ux, Initial residual = 0.020196, Final residual = 5.94663e-08, No Iterations 1
DILUPBiCGStab:  Solving for Uy, Initial residual = 0.00109377, Final residual = 2.08977e-06, No Iterations 1
DILUPBiCGStab:  Solving for Uz, Initial residual = 0.0202599, Final residual = 5.8368e-08, No Iterations 1
DILUPBiCGStab:  Solving for h, Initial residual = 6.02957e-05, Final residual = 1.10334e-07, No Iterations 1
Min/max T:300 491.575
GAMG:  Solving for p_rgh, Initial residual = 0.00286476, Final residual = 7.26516e-06, No Iterations 6
GAMG:  Solving for p_rgh, Initial residual = 3.66911e-05, Final residual = 9.18326e-06, No Iterations 1
diagonal:  Solving for rho, Initial residual = 0, Final residual = 0, No Iterations 0
time step continuity errors (oil): sum local = 1.33362e-07, global = 1.14226e-07, cumulative = 7.61602e-06

Solving for solid region sphere
DICPCG:  Solving for h, Initial residual = 0.0997254, Final residual = 5.59619e-10, No Iterations 15
Min/max T:491.108 493.478
ExecutionTime = 73.09 s  ClockTime = 74 s

Region: oil Courant Number mean: 0.000339857 max: 1.01196
Region: sphere Diffusion Number mean: 1.55395 max: 10.0317
deltaT = 0.0202202
Time = 0.92833


Solving for fluid region oil
diagonal:  Solving for rho, Initial residual = 0, Final residual = 0, No Iterations 0
DILUPBiCGStab:  Solving for Ux, Initial residual = 0.0191764, Final residual = 5.68276e-08, No Iterations 1
DILUPBiCGStab:  Solving for Uy, Initial residual = 0.00103497, Final residual = 1.96001e-06, No Iterations 1
DILUPBiCGStab:  Solving for Uz, Initial residual = 0.0192382, Final residual = 5.58397e-08, No Iterations 1
DILUPBiCGStab:  Solving for h, Initial residual = 5.78647e-05, Final residual = 1.05957e-07, No Iterations 1
Min/max T:300 491.475
GAMG:  Solving for p_rgh, Initial residual = 0.00279122, Final residual = 6.92045e-06, No Iterations 6
GAMG:  Solving for p_rgh, Initial residual = 3.59341e-05, Final residual = 8.91281e-06, No Iterations 1
diagonal:  Solving for rho, Initial residual = 0, Final residual = 0, No Iterations 0
time step continuity errors (oil): sum local = 1.29321e-07, global = 1.11198e-07, cumulative = 7.72722e-06

Solving for solid region sphere
DICPCG:  Solving for h, Initial residual = 0.0983163, Final residual = 4.76793e-10, No Iterations 15
Min/max T:490.981 493.344
ExecutionTime = 74.29 s  ClockTime = 75 s

Region: oil Courant Number mean: 0.000342433 max: 1.01071
Region: sphere Diffusion Number mean: 1.52525 max: 9.8464
deltaT = 0.0198457
Time = 0.948176


Solving for fluid region oil
diagonal:  Solving for rho, Initial residual = 0, Final residual = 0, No Iterations 0
DILUPBiCGStab:  Solving for Ux, Initial residual = 0.0182858, Final residual = 5.43406e-08, No Iterations 1
DILUPBiCGStab:  Solving for Uy, Initial residual = 0.000985385, Final residual = 1.84332e-06, No Iterations 1
DILUPBiCGStab:  Solving for Uz, Initial residual = 0.0183452, Final residual = 5.34251e-08, No Iterations 1
DILUPBiCGStab:  Solving for h, Initial residual = 5.55922e-05, Final residual = 1.01736e-07, No Iterations 1
Min/max T:300 491.377
GAMG:  Solving for p_rgh, Initial residual = 0.00272658, Final residual = 6.7813e-06, No Iterations 6
GAMG:  Solving for p_rgh, Initial residual = 3.48459e-05, Final residual = 8.68976e-06, No Iterations 1
diagonal:  Solving for rho, Initial residual = 0, Final residual = 0, No Iterations 0
time step continuity errors (oil): sum local = 1.25535e-07, global = 1.08305e-07, cumulative = 7.83553e-06

Solving for solid region sphere
DICPCG:  Solving for h, Initial residual = 0.0968989, Final residual = 4.05519e-10, No Iterations 15
Min/max T:490.857 493.213
ExecutionTime = 75.36 s  ClockTime = 76 s

Region: oil Courant Number mean: 0.000344803 max: 1.00853
Region: sphere Diffusion Number mean: 1.49707 max: 9.66448
deltaT = 0.0194782
Time = 0.967654


Solving for fluid region oil
diagonal:  Solving for rho, Initial residual = 0, Final residual = 0, No Iterations 0
DILUPBiCGStab:  Solving for Ux, Initial residual = 0.0175054, Final residual = 5.19356e-08, No Iterations 1
DILUPBiCGStab:  Solving for Uy, Initial residual = 0.000939731, Final residual = 1.73436e-06, No Iterations 1
DILUPBiCGStab:  Solving for Uz, Initial residual = 0.0175617, Final residual = 5.1085e-08, No Iterations 1
DILUPBiCGStab:  Solving for h, Initial residual = 5.34609e-05, Final residual = 9.76617e-08, No Iterations 1
Min/max T:300 491.282
GAMG:  Solving for p_rgh, Initial residual = 0.00266535, Final residual = 6.61648e-06, No Iterations 6
GAMG:  Solving for p_rgh, Initial residual = 3.3737e-05, Final residual = 8.48683e-06, No Iterations 1
diagonal:  Solving for rho, Initial residual = 0, Final residual = 0, No Iterations 0
time step continuity errors (oil): sum local = 1.21935e-07, global = 1.05532e-07, cumulative = 7.94106e-06

Solving for solid region sphere
DICPCG:  Solving for h, Initial residual = 0.0954757, Final residual = 3.44415e-10, No Iterations 15
Min/max T:490.736 493.086
ExecutionTime = 76.54 s  ClockTime = 78 s

Region: oil Courant Number mean: 0.000346963 max: 1.00548
Region: sphere Diffusion Number mean: 1.46941 max: 9.4859
deltaT = 0.0191175
Time = 0.986771


[...]
DILUPBiCGStab:  Solving for Ux, Initial residual = 0.000375916, Final residual = 3.0056e-08, No Iterations 1
DILUPBiCGStab:  Solving for Uy, Initial residual = 9.67605e-05, Final residual = 1.50659e-08, No Iterations 1
DILUPBiCGStab:  Solving for Uz, Initial residual = 0.000376196, Final residual = 2.99851e-08, No Iterations 1
DILUPBiCGStab:  Solving for h, Initial residual = 2.06413e-05, Final residual = 6.72989e-09, No Iterations 1
Min/max T:300 421.839
GAMG:  Solving for p_rgh, Initial residual = 0.000229088, Final residual = 6.62374e-06, No Iterations 2
GAMG:  Solving for p_rgh, Initial residual = 1.03994e-05, Final residual = 2.63818e-06, No Iterations 1
diagonal:  Solving for rho, Initial residual = 0, Final residual = 0, No Iterations 0
time step continuity errors (oil): sum local = 3.20779e-08, global = 3.0135e-08, cumulative = 8.66554e-05

Solving for solid region sphere
DICPCG:  Solving for h, Initial residual = 0.0343179, Final residual = 2.07437e-10, No Iterations 11
Min/max T:420.193 421.98
ExecutionTime = 1330.65 s  ClockTime = 1337 s

Region: oil Courant Number mean: 0.00321347 max: 0.979093
Region: sphere Diffusion Number mean: 0.752177 max: 4.85527
deltaT = 0.00969743
Time = 19.9806


Solving for fluid region oil
diagonal:  Solving for rho, Initial residual = 0, Final residual = 0, No Iterations 0
DILUPBiCGStab:  Solving for Ux, Initial residual = 0.000375622, Final residual = 3.00351e-08, No Iterations 1
DILUPBiCGStab:  Solving for Uy, Initial residual = 9.67054e-05, Final residual = 1.50623e-08, No Iterations 1
DILUPBiCGStab:  Solving for Uz, Initial residual = 0.000375912, Final residual = 2.99647e-08, No Iterations 1
DILUPBiCGStab:  Solving for h, Initial residual = 2.0636e-05, Final residual = 6.72771e-09, No Iterations 1
Min/max T:300 421.814
GAMG:  Solving for p_rgh, Initial residual = 0.000228932, Final residual = 6.61967e-06, No Iterations 2
GAMG:  Solving for p_rgh, Initial residual = 1.03934e-05, Final residual = 2.63642e-06, No Iterations 1
diagonal:  Solving for rho, Initial residual = 0, Final residual = 0, No Iterations 0
time step continuity errors (oil): sum local = 3.20673e-08, global = 3.01259e-08, cumulative = 8.66855e-05

Solving for solid region sphere
DICPCG:  Solving for h, Initial residual = 0.0343178, Final residual = 2.07453e-10, No Iterations 11
Min/max T:420.168 421.954
ExecutionTime = 1331.07 s  ClockTime = 1337 s

Region: oil Courant Number mean: 0.00321374 max: 0.978975
Region: sphere Diffusion Number mean: 0.752185 max: 4.85533
deltaT = 0.00969743
Time = 19.9903


Solving for fluid region oil
diagonal:  Solving for rho, Initial residual = 0, Final residual = 0, No Iterations 0
DILUPBiCGStab:  Solving for Ux, Initial residual = 0.00037532, Final residual = 3.00146e-08, No Iterations 1
DILUPBiCGStab:  Solving for Uy, Initial residual = 9.665e-05, Final residual = 1.50585e-08, No Iterations 1
DILUPBiCGStab:  Solving for Uz, Initial residual = 0.00037561, Final residual = 2.99442e-08, No Iterations 1
DILUPBiCGStab:  Solving for h, Initial residual = 2.06306e-05, Final residual = 6.72554e-09, No Iterations 1
Min/max T:300 421.788
GAMG:  Solving for p_rgh, Initial residual = 0.00022888, Final residual = 6.61749e-06, No Iterations 2
GAMG:  Solving for p_rgh, Initial residual = 1.03894e-05, Final residual = 2.6359e-06, No Iterations 1
diagonal:  Solving for rho, Initial residual = 0, Final residual = 0, No Iterations 0
time step continuity errors (oil): sum local = 3.20576e-08, global = 3.01168e-08, cumulative = 8.67157e-05

Solving for solid region sphere
DICPCG:  Solving for h, Initial residual = 0.0343177, Final residual = 2.0747e-10, No Iterations 11
Min/max T:420.143 421.928
ExecutionTime = 1331.57 s  ClockTime = 1338 s

Region: oil Courant Number mean: 0.003214 max: 0.978858
Region: sphere Diffusion Number mean: 0.752192 max: 4.85538
deltaT = 0.00969743
Time = 20


Solving for fluid region oil
diagonal:  Solving for rho, Initial residual = 0, Final residual = 0, No Iterations 0
DILUPBiCGStab:  Solving for Ux, Initial residual = 0.000375016, Final residual = 2.9994e-08, No Iterations 1
DILUPBiCGStab:  Solving for Uy, Initial residual = 9.65953e-05, Final residual = 1.50547e-08, No Iterations 1
DILUPBiCGStab:  Solving for Uz, Initial residual = 0.000375306, Final residual = 2.99234e-08, No Iterations 1
DILUPBiCGStab:  Solving for h, Initial residual = 2.0625e-05, Final residual = 6.72336e-09, No Iterations 1
Min/max T:300 421.762
GAMG:  Solving for p_rgh, Initial residual = 0.000228946, Final residual = 6.61551e-06, No Iterations 2
GAMG:  Solving for p_rgh, Initial residual = 1.03851e-05, Final residual = 2.63629e-06, No Iterations 1
diagonal:  Solving for rho, Initial residual = 0, Final residual = 0, No Iterations 0
time step continuity errors (oil): sum local = 3.20486e-08, global = 3.01077e-08, cumulative = 8.67458e-05

Solving for solid region sphere
DICPCG:  Solving for h, Initial residual = 0.0343176, Final residual = 2.07486e-10, No Iterations 11
Min/max T:420.117 421.903
ExecutionTime = 1332.67 s  ClockTime = 1339 s

wallHeatFlux wallHeatFlux1 write:
    writing field wallHeatFlux
    min/max/integ(maxY) = 0, 0, 0
    min/max/integ(minX) = 0, 0, 0
    min/max/integ(maxX) = 0, 0, 0
    min/max/integ(minY) = 0, 0, 0
    min/max/integ(minZ) = 0, 0, 0
    min/max/integ(maxZ) = 0, 0, 0
    min/max/integ(oil_to_sphere) = 13647.4, 67057, 130.292
    functionObjects::heatTransferCoeff sphereHeatTrfCoeff writing field: heatTransferCoeff(T)
surfaceFieldValue avgSphereHeatTrfCoeff write:
    areaAverage(oil_to_sphere) of heatTransferCoeff(T) = -383.067
    areaAverage(oil_to_sphere) of T = 420.841

Region: oil Courant Number mean: 0.00321427 max: 0.97874
Region: sphere Diffusion Number mean: 0.7522 max: 4.85543
deltaT = 0.00980392
Time = 20.0098


Solving for fluid region oil
diagonal:  Solving for rho, Initial residual = 0, Final residual = 0, No Iterations 0
DILUPBiCGStab:  Solving for Ux, Initial residual = 0.000378974, Final residual = 3.08639e-08, No Iterations 1
DILUPBiCGStab:  Solving for Uy, Initial residual = 9.76528e-05, Final residual = 1.54491e-08, No Iterations 1
DILUPBiCGStab:  Solving for Uz, Initial residual = 0.000379289, Final residual = 3.07902e-08, No Iterations 1
DILUPBiCGStab:  Solving for h, Initial residual = 2.08445e-05, Final residual = 6.89853e-09, No Iterations 1
Min/max T:300 421.736
GAMG:  Solving for p_rgh, Initial residual = 0.000265112, Final residual = 6.96661e-06, No Iterations 2
GAMG:  Solving for p_rgh, Initial residual = 1.09527e-05, Final residual = 2.80062e-06, No Iterations 1
diagonal:  Solving for rho, Initial residual = 0, Final residual = 0, No Iterations 0
time step continuity errors (oil): sum local = 3.2532e-08, global = 3.0434e-08, cumulative = 8.67762e-05

Solving for solid region sphere
DICPCG:  Solving for h, Initial residual = 0.0346735, Final residual = 2.28494e-10, No Iterations 11
Min/max T:420.092 421.876
ExecutionTime = 1333.16 s  ClockTime = 1340 s

Region: oil Courant Number mean: 0.00324984 max: 0.98937
Region: sphere Diffusion Number mean: 0.760469 max: 4.9088
deltaT = 0.00980392
Time = 20.0196


Solving for fluid region oil
diagonal:  Solving for rho, Initial residual = 0, Final residual = 0, No Iterations 0
DILUPBiCGStab:  Solving for Ux, Initial residual = 0.000378864, Final residual = 3.1861e-08, No Iterations 1
DILUPBiCGStab:  Solving for Uy, Initial residual = 9.74875e-05, Final residual = 1.49144e-08, No Iterations 1
DILUPBiCGStab:  Solving for Uz, Initial residual = 0.000379167, Final residual = 3.17395e-08, No Iterations 1
DILUPBiCGStab:  Solving for h, Initial residual = 2.08388e-05, Final residual = 6.89567e-09, No Iterations 1
Min/max T:300 421.71
GAMG:  Solving for p_rgh, Initial residual = 0.00023364, Final residual = 6.7975e-06, No Iterations 2
GAMG:  Solving for p_rgh, Initial residual = 1.06012e-05, Final residual = 2.71209e-06, No Iterations 1
diagonal:  Solving for rho, Initial residual = 0, Final residual = 0, No Iterations 0
time step continuity errors (oil): sum local = 3.24576e-08, global = 3.04246e-08, cumulative = 8.68066e-05

Solving for solid region sphere
DICPCG:  Solving for h, Initial residual = 0.0346734, Final residual = 2.28519e-10, No Iterations 11
Min/max T:420.066 421.85
ExecutionTime = 1333.6 s  ClockTime = 1340 s

Region: oil Courant Number mean: 0.00325012 max: 0.989251
Region: sphere Diffusion Number mean: 0.760477 max: 4.90885
deltaT = 0.00980392
Time = 20.0294


Solving for fluid region oil
diagonal:  Solving for rho, Initial residual = 0, Final residual = 0, No Iterations 0
DILUPBiCGStab:  Solving for Ux, Initial residual = 0.000378453, Final residual = 3.11135e-08, No Iterations 1
DILUPBiCGStab:  Solving for Uy, Initial residual = 9.74678e-05, Final residual = 1.51696e-08, No Iterations 1
DILUPBiCGStab:  Solving for Uz, Initial residual = 0.000378743, Final residual = 3.10541e-08, No Iterations 1
DILUPBiCGStab:  Solving for h, Initial residual = 2.08331e-05, Final residual = 6.89329e-09, No Iterations 1
Min/max T:300 421.684
GAMG:  Solving for p_rgh, Initial residual = 0.000232351, Final residual = 6.70605e-06, No Iterations 2
GAMG:  Solving for p_rgh, Initial residual = 1.05093e-05, Final residual = 2.66574e-06, No Iterations 1
diagonal:  Solving for rho, Initial residual = 0, Final residual = 0, No Iterations 0
time step continuity errors (oil): sum local = 3.24133e-08, global = 3.04152e-08, cumulative = 8.6837e-05

Solving for solid region sphere
DICPCG:  Solving for h, Initial residual = 0.0346733, Final residual = 2.28533e-10, No Iterations 11
Min/max T:420.041 421.824
ExecutionTime = 1334.09 s  ClockTime = 1341 s

Region: oil Courant Number mean: 0.00325039 max: 0.989131
Region: sphere Diffusion Number mean: 0.760485 max: 4.9089
deltaT = 0.00980392
Time = 20.0392


Solving for fluid region oil
diagonal:  Solving for rho, Initial residual = 0, Final residual = 0, No Iterations 0
DILUPBiCGStab:  Solving for Ux, Initial residual = 0.000378113, Final residual = 3.08985e-08, No Iterations 1
DILUPBiCGStab:  Solving for Uy, Initial residual = 9.74259e-05, Final residual = 1.52521e-08, No Iterations 1
DILUPBiCGStab:  Solving for Uz, Initial residual = 0.000378392, Final residual = 3.08211e-08, No Iterations 1
DILUPBiCGStab:  Solving for h, Initial residual = 2.08275e-05, Final residual = 6.8909e-09, No Iterations 1
Min/max T:300 421.658
GAMG:  Solving for p_rgh, Initial residual = 0.000231944, Final residual = 6.67469e-06, No Iterations 2
GAMG:  Solving for p_rgh, Initial residual = 1.04778e-05, Final residual = 2.65534e-06, No Iterations 1
diagonal:  Solving for rho, Initial residual = 0, Final residual = 0, No Iterations 0
time step continuity errors (oil): sum local = 3.23958e-08, global = 3.0406e-08, cumulative = 8.68674e-05

Solving for solid region sphere
DICPCG:  Solving for h, Initial residual = 0.0346732, Final residual = 2.2855e-10, No Iterations 11
Min/max T:420.015 421.798
ExecutionTime = 1334.52 s  ClockTime = 1341 s

Region: oil Courant Number mean: 0.00325066 max: 0.989012
Region: sphere Diffusion Number mean: 0.760493 max: 4.90895
deltaT = 0.00980392
Time = 20.049


Solving for fluid region oil
diagonal:  Solving for rho, Initial residual = 0, Final residual = 0, No Iterations 0
DILUPBiCGStab:  Solving for Ux, Initial residual = 0.000377756, Final residual = 3.08218e-08, No Iterations 1
DILUPBiCGStab:  Solving for Uy, Initial residual = 9.73771e-05, Final residual = 1.52873e-08, No Iterations 1
DILUPBiCGStab:  Solving for Uz, Initial residual = 0.00037807, Final residual = 3.07447e-08, No Iterations 1
DILUPBiCGStab:  Solving for h, Initial residual = 2.08219e-05, Final residual = 6.88862e-09, No Iterations 1
Min/max T:300 421.632
GAMG:  Solving for p_rgh, Initial residual = 0.000231575, Final residual = 6.67116e-06, No Iterations 2
GAMG:  Solving for p_rgh, Initial residual = 1.04783e-05, Final residual = 2.65741e-06, No Iterations 1
diagonal:  Solving for rho, Initial residual = 0, Final residual = 0, No Iterations 0
time step continuity errors (oil): sum local = 3.23879e-08, global = 3.03967e-08, cumulative = 8.68978e-05

Solving for solid region sphere
DICPCG:  Solving for h, Initial residual = 0.0346731, Final residual = 2.28567e-10, No Iterations 11
Min/max T:419.99 421.772
ExecutionTime = 1335.04 s  ClockTime = 1342 s

Region: oil Courant Number mean: 0.00325094 max: 0.988892
Region: sphere Diffusion Number mean: 0.760501 max: 4.909
deltaT = 0.00980392
Time = 20.0588


Solving for fluid region oil
diagonal:  Solving for rho, Initial residual = 0, Final residual = 0, No Iterations 0
DILUPBiCGStab:  Solving for Ux, Initial residual = 0.000377434, Final residual = 3.07765e-08, No Iterations 1
DILUPBiCGStab:  Solving for Uy, Initial residual = 9.73231e-05, Final residual = 1.531e-08, No Iterations 1
DILUPBiCGStab:  Solving for Uz, Initial residual = 0.000377754, Final residual = 3.07042e-08, No Iterations 1
DILUPBiCGStab:  Solving for h, Initial residual = 2.08163e-05, Final residual = 6.88642e-09, No Iterations 1
Min/max T:300 421.606
GAMG:  Solving for p_rgh, Initial residual = 0.000231242, Final residual = 6.6765e-06, No Iterations 2
GAMG:  Solving for p_rgh, Initial residual = 1.04831e-05, Final residual = 2.6619e-06, No Iterations 1
diagonal:  Solving for rho, Initial residual = 0, Final residual = 0, No Iterations 0
time step continuity errors (oil): sum local = 3.23817e-08, global = 3.03875e-08, cumulative = 8.69282e-05

Solving for solid region sphere
DICPCG:  Solving for h, Initial residual = 0.034673, Final residual = 2.28586e-10, No Iterations 11
Min/max T:419.964 421.746
ExecutionTime = 1335.52 s  ClockTime = 1342 s

Region: oil Courant Number mean: 0.00325121 max: 0.988773
Region: sphere Diffusion Number mean: 0.760509 max: 4.90906
deltaT = 0.00980392
Time = 20.0686


Solving for fluid region oil
diagonal:  Solving for rho, Initial residual = 0, Final residual = 0, No Iterations 0
DILUPBiCGStab:  Solving for Ux, Initial residual = 0.000377151, Final residual = 3.07396e-08, No Iterations 1
DILUPBiCGStab:  Solving for Uy, Initial residual = 9.72646e-05, Final residual = 1.53252e-08, No Iterations 1
DILUPBiCGStab:  Solving for Uz, Initial residual = 0.000377441, Final residual = 3.06701e-08, No Iterations 1
DILUPBiCGStab:  Solving for h, Initial residual = 2.08105e-05, Final residual = 6.88425e-09, No Iterations 1
Min/max T:300 421.58
GAMG:  Solving for p_rgh, Initial residual = 0.0002311, Final residual = 6.67454e-06, No Iterations 2
GAMG:  Solving for p_rgh, Initial residual = 1.04779e-05, Final residual = 2.66078e-06, No Iterations 1
diagonal:  Solving for rho, Initial residual = 0, Final residual = 0, No Iterations 0
time step continuity errors (oil): sum local = 3.23715e-08, global = 3.03783e-08, cumulative = 8.69586e-05

Solving for solid region sphere
DICPCG:  Solving for h, Initial residual = 0.0346728, Final residual = 2.28604e-10, No Iterations 11
Min/max T:419.938 421.72
ExecutionTime = 1336.02 s  ClockTime = 1343 s

Region: oil Courant Number mean: 0.00325148 max: 0.988653
Region: sphere Diffusion Number mean: 0.760517 max: 4.90911
deltaT = 0.00980392
Time = 20.0784


Solving for fluid region oil
diagonal:  Solving for rho, Initial residual = 0, Final residual = 0, No Iterations 0
DILUPBiCGStab:  Solving for Ux, Initial residual = 0.000376822, Final residual = 3.07086e-08, No Iterations 1
DILUPBiCGStab:  Solving for Uy, Initial residual = 9.72082e-05, Final residual = 1.53348e-08, No Iterations 1
DILUPBiCGStab:  Solving for Uz, Initial residual = 0.000377119, Final residual = 3.06397e-08, No Iterations 1
DILUPBiCGStab:  Solving for h, Initial residual = 2.08048e-05, Final residual = 6.88209e-09, No Iterations 1
Min/max T:300 421.554
GAMG:  Solving for p_rgh, Initial residual = 0.000231025, Final residual = 6.67562e-06, No Iterations 2
GAMG:  Solving for p_rgh, Initial residual = 1.04772e-05, Final residual = 2.66244e-06, No Iterations 1
diagonal:  Solving for rho, Initial residual = 0, Final residual = 0, No Iterations 0
time step continuity errors (oil): sum local = 3.23633e-08, global = 3.0369e-08, cumulative = 8.6989e-05

Solving for solid region sphere
DICPCG:  Solving for h, Initial residual = 0.0346727, Final residual = 2.28622e-10, No Iterations 11
Min/max T:419.913 421.694
ExecutionTime = 1336.48 s  ClockTime = 1343 s

Region: oil Courant Number mean: 0.00325175 max: 0.988534
Region: sphere Diffusion Number mean: 0.760525 max: 4.90916
deltaT = 0.00980392
Time = 20.0882


Solving for fluid region oil
diagonal:  Solving for rho, Initial residual = 0, Final residual = 0, No Iterations 0
DILUPBiCGStab:  Solving for Ux, Initial residual = 0.00037648, Final residual = 3.06813e-08, No Iterations 1
DILUPBiCGStab:  Solving for Uy, Initial residual = 9.71514e-05, Final residual = 1.5341e-08, No Iterations 1
DILUPBiCGStab:  Solving for Uz, Initial residual = 0.000376787, Final residual = 3.06123e-08, No Iterations 1
DILUPBiCGStab:  Solving for h, Initial residual = 2.07993e-05, Final residual = 6.87995e-09, No Iterations 1
Min/max T:300 421.528
GAMG:  Solving for p_rgh, Initial residual = 0.000230964, Final residual = 6.67428e-06, No Iterations 2
GAMG:  Solving for p_rgh, Initial residual = 1.04748e-05, Final residual = 2.65919e-06, No Iterations 1
diagonal:  Solving for rho, Initial residual = 0, Final residual = 0, No Iterations 0
time step continuity errors (oil): sum local = 3.23514e-08, global = 3.03598e-08, cumulative = 8.70193e-05

Solving for solid region sphere
DICPCG:  Solving for h, Initial residual = 0.0346726, Final residual = 2.2864e-10, No Iterations 11
Min/max T:419.887 421.668
ExecutionTime = 1336.95 s  ClockTime = 1344 s

Region: oil Courant Number mean: 0.00325203 max: 0.988414
Region: sphere Diffusion Number mean: 0.760533 max: 4.90921
deltaT = 0.00980392
Time = 20.098


Solving for fluid region oil
diagonal:  Solving for rho, Initial residual = 0, Final residual = 0, No Iterations 0
DILUPBiCGStab:  Solving for Ux, Initial residual = 0.00037615, Final residual = 3.06564e-08, No Iterations 1
DILUPBiCGStab:  Solving for Uy, Initial residual = 9.70941e-05, Final residual = 1.53451e-08, No Iterations 1
DILUPBiCGStab:  Solving for Uz, Initial residual = 0.000376455, Final residual = 3.05863e-08, No Iterations 1
DILUPBiCGStab:  Solving for h, Initial residual = 2.07937e-05, Final residual = 6.87782e-09, No Iterations 1
Min/max T:300 421.502
GAMG:  Solving for p_rgh, Initial residual = 0.000230749, Final residual = 6.65903e-06, No Iterations 2
GAMG:  Solving for p_rgh, Initial residual = 1.04637e-05, Final residual = 2.65368e-06, No Iterations 1
diagonal:  Solving for rho, Initial residual = 0, Final residual = 0, No Iterations 0
time step continuity errors (oil): sum local = 3.23378e-08, global = 3.03506e-08, cumulative = 8.70497e-05

Solving for solid region sphere
DICPCG:  Solving for h, Initial residual = 0.0346725, Final residual = 2.28659e-10, No Iterations 11
Min/max T:419.862 421.641
ExecutionTime = 1337.44 s  ClockTime = 1344 s

Region: oil Courant Number mean: 0.0032523 max: 0.988295
Region: sphere Diffusion Number mean: 0.760541 max: 4.90926
deltaT = 0.00980392
Time = 20.1078


Solving for fluid region oil
diagonal:  Solving for rho, Initial residual = 0, Final residual = 0, No Iterations 0
DILUPBiCGStab:  Solving for Ux, Initial residual = 0.000375877, Final residual = 3.06331e-08, No Iterations 1
DILUPBiCGStab:  Solving for Uy, Initial residual = 9.70298e-05, Final residual = 1.5348e-08, No Iterations 1
DILUPBiCGStab:  Solving for Uz, Initial residual = 0.000376181, Final residual = 3.05624e-08, No Iterations 1
DILUPBiCGStab:  Solving for h, Initial residual = 2.0788e-05, Final residual = 6.8757e-09, No Iterations 1
Min/max T:300 421.476
GAMG:  Solving for p_rgh, Initial residual = 0.000230616, Final residual = 6.66195e-06, No Iterations 2
GAMG:  Solving for p_rgh, Initial residual = 1.04624e-05, Final residual = 2.65555e-06, No Iterations 1
