/*---------------------------------------------------------------------------*\
| =========                 |                                                 |
| \\      /  F ield         | OpenFOAM: The Open Source CFD Toolbox           |
|  \\    /   O peration     | Version:  v1906                                 |
|   \\  /    A nd           | Web:      www.OpenFOAM.com                      |
|    \\/     M anipulation  |                                                 |
\*---------------------------------------------------------------------------*/
Build  : v1906 OPENFOAM=1906
Arch   : "LSB;label=32;scalar=64"
Exec   : chtMultiRegionFoam
Date   : Mar 02 2020
Time   : 11:15:18
Host   : DESKTOP-9S60IA4
PID    : 3469
I/O    : uncollated
Case   : /home/theodore_ong/GitHub_software/OpenFoam_heatTrf_YouTube/chtMultiregionFoam/expt_case
nProcs : 1
trapFpe: Floating point exception trapping enabled (FOAM_SIGFPE).
fileModificationChecking : Monitoring run-time modified files using timeStampMaster (fileModificationSkew 10)
allowSystemOperations : Allowing user-supplied system call operations

// * * * * * * * * * * * * * * * * * * * * * * * * * * * * * * * * * * * * * //
Create time

Create fluid mesh for region oil for time = 0

Create solid mesh for region sphere for time = 0

*** Reading fluid mesh thermophysical properties for region oil

    Adding to thermoFluid

Selecting thermodynamics package 
{
    type            heRhoThermo;
    mixture         pureMixture;
    transport       polynomial;
    thermo          hPolynomial;
    equationOfState icoPolynomial;
    specie          specie;
    energy          sensibleEnthalpy;
}

    Adding to rhoFluid

    Adding to UFluid

    Adding to phiFluid

    Adding to hRefFluid

    Adding to ghFluid

    Adding to ghfFluid

    Adding to turbulenceFluid

Selecting turbulence model type laminar
Selecting laminar stress model Stokes
    Adding to reactionFluid

Combustion model not active: combustionProperties not found
Selecting combustion model none
    Adding to radiationFluid

Selecting radiationModel none
    Adding to KFluid

    Adding to dpdtFluid

    Adding to fieldsFluid

    Adding to QdotFluid

    Adding MRF

No MRF models present

    Adding fvOptions

*** Reading solid mesh thermophysical properties for region sphere

    Adding to thermos

Selecting thermodynamics package 
{
    type            heSolidThermo;
    mixture         pureMixture;
    transport       polynomial;
    thermo          hPolynomial;
    equationOfState rhoConst;
    specie          specie;
    energy          sensibleEnthalpy;
}

    Adding to radiations

Selecting radiationModel none
    Adding fvOptions

Region: oil Courant Number mean: 0 max: 0
Region: sphere Diffusion Number mean: 0.00813352 max: 0.266235
wallHeatFlux wallHeatFlux1:
    processing all wall patches

deltaT = 0.001
Region: oil Courant Number mean: 0 max: 0
Region: sphere Diffusion Number mean: 0.00813352 max: 0.266235
deltaT = 0.00119904
Time = 0.00119904


Solving for fluid region oil
diagonal:  Solving for rho, Initial residual = 0, Final residual = 0, No Iterations 0
DILUPBiCGStab:  Solving for Ux, Initial residual = 1, Final residual = 4.06172e-08, No Iterations 2
DILUPBiCGStab:  Solving for Uy, Initial residual = 1, Final residual = 1.38387e-09, No Iterations 2
DILUPBiCGStab:  Solving for Uz, Initial residual = 1, Final residual = 3.89386e-08, No Iterations 2
DILUPBiCGStab:  Solving for h, Initial residual = 1, Final residual = 1.06834e-10, No Iterations 1
Min/max T:300 499.982
GAMG:  Solving for p_rgh, Initial residual = 0.958023, Final residual = 0.00547312, No Iterations 5
GAMG:  Solving for p_rgh, Initial residual = 0.212129, Final residual = 7.1249e-08, No Iterations 23
diagonal:  Solving for rho, Initial residual = 0, Final residual = 0, No Iterations 0
time step continuity errors (oil): sum local = 2.13937e-09, global = 2.1388e-09, cumulative = 2.1388e-09

Solving for solid region sphere
DICPCG:  Solving for h, Initial residual = 1, Final residual = 4.30532e-07, No Iterations 2
Min/max T:499.92 500
ExecutionTime = 0.33 s  ClockTime = 0 s

Region: oil Courant Number mean: 3.30158e-06 max: 0.000152944
Region: sphere Diffusion Number mean: 0.00975244 max: 0.31923
deltaT = 0.00143747
Time = 0.00263651


Solving for fluid region oil
diagonal:  Solving for rho, Initial residual = 0, Final residual = 0, No Iterations 0
DILUPBiCGStab:  Solving for Ux, Initial residual = 0.377441, Final residual = 1.9914e-09, No Iterations 2
DILUPBiCGStab:  Solving for Uy, Initial residual = 0.928447, Final residual = 2.10237e-09, No Iterations 2
DILUPBiCGStab:  Solving for Uz, Initial residual = 0.377407, Final residual = 1.92249e-09, No Iterations 2
DILUPBiCGStab:  Solving for h, Initial residual = 0.0304917, Final residual = 3.36229e-11, No Iterations 1
Min/max T:300 499.983
GAMG:  Solving for p_rgh, Initial residual = 0.843887, Final residual = 0.00462172, No Iterations 4
GAMG:  Solving for p_rgh, Initial residual = 0.0981868, Final residual = 8.15683e-08, No Iterations 21
diagonal:  Solving for rho, Initial residual = 0, Final residual = 0, No Iterations 0
time step continuity errors (oil): sum local = 1.78895e-09, global = 1.7888e-09, cumulative = 3.9276e-09

Solving for solid region sphere
DICPCG:  Solving for h, Initial residual = 0.242768, Final residual = 1.52816e-07, No Iterations 2
Min/max T:499.917 500
ExecutionTime = 0.42 s  ClockTime = 1 s

Region: oil Courant Number mean: 3.43234e-06 max: 0.000158157
Region: sphere Diffusion Number mean: 0.0116917 max: 0.382709
deltaT = 0.00172696
Time = 0.00436346


Solving for fluid region oil
diagonal:  Solving for rho, Initial residual = 0, Final residual = 0, No Iterations 0
DILUPBiCGStab:  Solving for Ux, Initial residual = 0.146838, Final residual = 2.08347e-09, No Iterations 2
DILUPBiCGStab:  Solving for Uy, Initial residual = 0.72548, Final residual = 3.21373e-10, No Iterations 2
DILUPBiCGStab:  Solving for Uz, Initial residual = 0.147086, Final residual = 2.07633e-09, No Iterations 2
DILUPBiCGStab:  Solving for h, Initial residual = 0.197839, Final residual = 5.75556e-11, No Iterations 1
Min/max T:299.999 499.979
GAMG:  Solving for p_rgh, Initial residual = 0.542911, Final residual = 0.00331859, No Iterations 4
GAMG:  Solving for p_rgh, Initial residual = 0.0194114, Final residual = 8.23347e-08, No Iterations 17
diagonal:  Solving for rho, Initial residual = 0, Final residual = 0, No Iterations 0
time step continuity errors (oil): sum local = 1.85442e-08, global = 1.85441e-08, cumulative = 2.24717e-08

Solving for solid region sphere
DICPCG:  Solving for h, Initial residual = 0.16355, Final residual = 1.88015e-07, No Iterations 2
Min/max T:499.913 500
ExecutionTime = 0.51 s  ClockTime = 1 s

Region: oil Courant Number mean: 4.45531e-06 max: 0.000249922
Region: sphere Diffusion Number mean: 0.0140463 max: 0.459784
deltaT = 0.00207379
Time = 0.00643726


Solving for fluid region oil
diagonal:  Solving for rho, Initial residual = 0, Final residual = 0, No Iterations 0
DILUPBiCGStab:  Solving for Ux, Initial residual = 0.162, Final residual = 5.70278e-10, No Iterations 2
DILUPBiCGStab:  Solving for Uy, Initial residual = 0.120751, Final residual = 4.32637e-09, No Iterations 2
DILUPBiCGStab:  Solving for Uz, Initial residual = 0.161964, Final residual = 5.61209e-10, No Iterations 2
DILUPBiCGStab:  Solving for h, Initial residual = 0.0374221, Final residual = 2.8836e-11, No Iterations 1
Min/max T:299.999 499.974
GAMG:  Solving for p_rgh, Initial residual = 0.330328, Final residual = 0.00269887, No Iterations 6
GAMG:  Solving for p_rgh, Initial residual = 0.00689758, Final residual = 7.33723e-08, No Iterations 19
diagonal:  Solving for rho, Initial residual = 0, Final residual = 0, No Iterations 0
time step continuity errors (oil): sum local = 6.06357e-09, global = 6.06351e-09, cumulative = 2.85352e-08

Solving for solid region sphere
DICPCG:  Solving for h, Initial residual = 0.131172, Final residual = 2.7672e-07, No Iterations 2
Min/max T:499.908 500
ExecutionTime = 0.62 s  ClockTime = 1 s

Region: oil Courant Number mean: 4.60526e-06 max: 0.000218771
Region: sphere Diffusion Number mean: 0.0168673 max: 0.552127
deltaT = 0.00249274
Time = 0.00893


Solving for fluid region oil
diagonal:  Solving for rho, Initial residual = 0, Final residual = 0, No Iterations 0
DILUPBiCGStab:  Solving for Ux, Initial residual = 0.192549, Final residual = 1.18487e-09, No Iterations 2
DILUPBiCGStab:  Solving for Uy, Initial residual = 0.111076, Final residual = 6.55646e-09, No Iterations 2
DILUPBiCGStab:  Solving for Uz, Initial residual = 0.192339, Final residual = 1.21368e-09, No Iterations 2
DILUPBiCGStab:  Solving for h, Initial residual = 0.0412913, Final residual = 3.14064e-11, No Iterations 1
Min/max T:299.999 499.97
GAMG:  Solving for p_rgh, Initial residual = 0.250563, Final residual = 0.00154805, No Iterations 6
GAMG:  Solving for p_rgh, Initial residual = 0.00368269, Final residual = 8.9477e-08, No Iterations 17
diagonal:  Solving for rho, Initial residual = 0, Final residual = 0, No Iterations 0
time step continuity errors (oil): sum local = 3.82514e-09, global = -3.82508e-09, cumulative = 2.47102e-08

Solving for solid region sphere
DICPCG:  Solving for h, Initial residual = 0.11491, Final residual = 4.43099e-07, No Iterations 2
Min/max T:499.903 500
ExecutionTime = 0.72 s  ClockTime = 1 s

Region: oil Courant Number mean: 5.05888e-06 max: 0.000252521
Region: sphere Diffusion Number mean: 0.0202749 max: 0.66367
deltaT = 0.00299433
Time = 0.0119243


Solving for fluid region oil
diagonal:  Solving for rho, Initial residual = 0, Final residual = 0, No Iterations 0
DILUPBiCGStab:  Solving for Ux, Initial residual = 0.0938038, Final residual = 1.26446e-09, No Iterations 2
DILUPBiCGStab:  Solving for Uy, Initial residual = 0.0686181, Final residual = 9.57243e-09, No Iterations 2
DILUPBiCGStab:  Solving for Uz, Initial residual = 0.0938265, Final residual = 1.3044e-09, No Iterations 2
DILUPBiCGStab:  Solving for h, Initial residual = 0.0155162, Final residual = 2.92753e-11, No Iterations 1
Min/max T:299.998 499.964
GAMG:  Solving for p_rgh, Initial residual = 0.210366, Final residual = 0.00123712, No Iterations 7
GAMG:  Solving for p_rgh, Initial residual = 0.00306264, Final residual = 6.32516e-08, No Iterations 18
diagonal:  Solving for rho, Initial residual = 0, Final residual = 0, No Iterations 0
time step continuity errors (oil): sum local = 4.76622e-09, global = 4.76618e-09, cumulative = 2.94763e-08

Solving for solid region sphere
DICPCG:  Solving for h, Initial residual = 0.105981, Final residual = 7.3255e-07, No Iterations 2
Min/max T:499.897 500
ExecutionTime = 0.81 s  ClockTime = 1 s

Region: oil Courant Number mean: 5.91225e-06 max: 0.000290615
Region: sphere Diffusion Number mean: 0.0243547 max: 0.797217
deltaT = 0.00358879
Time = 0.0155131


Solving for fluid region oil
diagonal:  Solving for rho, Initial residual = 0, Final residual = 0, No Iterations 0
DILUPBiCGStab:  Solving for Ux, Initial residual = 0.0940879, Final residual = 2.08543e-09, No Iterations 2
DILUPBiCGStab:  Solving for Uy, Initial residual = 0.0672215, Final residual = 1.57063e-08, No Iterations 2
DILUPBiCGStab:  Solving for Uz, Initial residual = 0.0940535, Final residual = 2.11807e-09, No Iterations 2
DILUPBiCGStab:  Solving for h, Initial residual = 0.016522, Final residual = 3.70444e-11, No Iterations 1
Min/max T:299.997 499.959
GAMG:  Solving for p_rgh, Initial residual = 0.185115, Final residual = 0.00166231, No Iterations 6
GAMG:  Solving for p_rgh, Initial residual = 0.00357924, Final residual = 7.77303e-08, No Iterations 18
diagonal:  Solving for rho, Initial residual = 0, Final residual = 0, No Iterations 0
time step continuity errors (oil): sum local = 6.69986e-09, global = 6.69981e-09, cumulative = 3.61761e-08

Solving for solid region sphere
DICPCG:  Solving for h, Initial residual = 0.101074, Final residual = 4.61181e-09, No Iterations 3
Min/max T:499.891 500
ExecutionTime = 0.9 s  ClockTime = 1 s

Region: oil Courant Number mean: 6.74188e-06 max: 0.000331313
Region: sphere Diffusion Number mean: 0.0291899 max: 0.955492
deltaT = 0.00428749
Time = 0.0198006


Solving for fluid region oil
diagonal:  Solving for rho, Initial residual = 0, Final residual = 0, No Iterations 0
DILUPBiCGStab:  Solving for Ux, Initial residual = 0.0310077, Final residual = 2.79268e-09, No Iterations 2
DILUPBiCGStab:  Solving for Uy, Initial residual = 0.0575759, Final residual = 1.95405e-08, No Iterations 2
DILUPBiCGStab:  Solving for Uz, Initial residual = 0.0310272, Final residual = 2.88114e-09, No Iterations 2
DILUPBiCGStab:  Solving for h, Initial residual = 0.0115807, Final residual = 4.37446e-11, No Iterations 1
Min/max T:299.997 499.953
GAMG:  Solving for p_rgh, Initial residual = 0.136039, Final residual = 0.00132142, No Iterations 3
GAMG:  Solving for p_rgh, Initial residual = 0.00259165, Final residual = 6.76125e-08, No Iterations 18
diagonal:  Solving for rho, Initial residual = 0, Final residual = 0, No Iterations 0
time step continuity errors (oil): sum local = 4.68849e-09, global = 4.68845e-09, cumulative = 4.08646e-08

Solving for solid region sphere
DICPCG:  Solving for h, Initial residual = 0.0988754, Final residual = 1.03724e-08, No Iterations 3
Min/max T:499.884 500
ExecutionTime = 1.01 s  ClockTime = 1 s

Region: oil Courant Number mean: 7.5638e-06 max: 0.000374043
Region: sphere Diffusion Number mean: 0.034873 max: 1.14152
deltaT = 0.00516343
Time = 0.024964


Solving for fluid region oil
diagonal:  Solving for rho, Initial residual = 0, Final residual = 0, No Iterations 0
DILUPBiCGStab:  Solving for Ux, Initial residual = 0.0403936, Final residual = 4.12098e-09, No Iterations 2
DILUPBiCGStab:  Solving for Uy, Initial residual = 0.0624638, Final residual = 3.12321e-08, No Iterations 2
DILUPBiCGStab:  Solving for Uz, Initial residual = 0.0404324, Final residual = 4.24418e-09, No Iterations 2
DILUPBiCGStab:  Solving for h, Initial residual = 0.0102422, Final residual = 5.71282e-11, No Iterations 1
Min/max T:299.996 499.946
GAMG:  Solving for p_rgh, Initial residual = 0.124526, Final residual = 0.000783224, No Iterations 6
GAMG:  Solving for p_rgh, Initial residual = 0.00197236, Final residual = 6.50988e-08, No Iterations 17
diagonal:  Solving for rho, Initial residual = 0, Final residual = 0, No Iterations 0
time step continuity errors (oil): sum local = 6.1957e-09, global = 6.19566e-09, cumulative = 4.70603e-08

Solving for solid region sphere
DICPCG:  Solving for h, Initial residual = 0.0994672, Final residual = 2.42451e-08, No Iterations 3
Min/max T:499.876 500
ExecutionTime = 1.11 s  ClockTime = 1 s

Region: oil Courant Number mean: 8.62909e-06 max: 0.000423759
Region: sphere Diffusion Number mean: 0.0419978 max: 1.37474
deltaT = 0.0061693
Time = 0.0311333


Solving for fluid region oil
diagonal:  Solving for rho, Initial residual = 0, Final residual = 0, No Iterations 0
DILUPBiCGStab:  Solving for Ux, Initial residual = 0.0301049, Final residual = 5.82894e-09, No Iterations 2
DILUPBiCGStab:  Solving for Uy, Initial residual = 0.0593259, Final residual = 4.18207e-08, No Iterations 2
DILUPBiCGStab:  Solving for Uz, Initial residual = 0.0301199, Final residual = 6.01712e-09, No Iterations 2
DILUPBiCGStab:  Solving for h, Initial residual = 0.00967046, Final residual = 7.48334e-11, No Iterations 1
Min/max T:299.995 499.939
GAMG:  Solving for p_rgh, Initial residual = 0.0975188, Final residual = 0.00093956, No Iterations 3
GAMG:  Solving for p_rgh, Initial residual = 0.00210151, Final residual = 8.56344e-08, No Iterations 16
diagonal:  Solving for rho, Initial residual = 0, Final residual = 0, No Iterations 0
time step continuity errors (oil): sum local = 7.8543e-09, global = 7.85424e-09, cumulative = 5.49145e-08

Solving for solid region sphere
DICPCG:  Solving for h, Initial residual = 0.100636, Final residual = 5.30543e-08, No Iterations 3
Min/max T:499.867 499.999
ExecutionTime = 1.2 s  ClockTime = 1 s

Region: oil Courant Number mean: 9.75182e-06 max: 0.000482084
Region: sphere Diffusion Number mean: 0.0501794 max: 1.64256
deltaT = 0.00744233
Time = 0.0385757


Solving for fluid region oil
diagonal:  Solving for rho, Initial residual = 0, Final residual = 0, No Iterations 0
DILUPBiCGStab:  Solving for Ux, Initial residual = 0.0283033, Final residual = 8.14062e-09, No Iterations 2
DILUPBiCGStab:  Solving for Uy, Initial residual = 0.0619282, Final residual = 5.94641e-08, No Iterations 2
DILUPBiCGStab:  Solving for Uz, Initial residual = 0.0283536, Final residual = 8.39463e-09, No Iterations 2
DILUPBiCGStab:  Solving for h, Initial residual = 0.00921005, Final residual = 1.01952e-10, No Iterations 1
Min/max T:299.993 499.933
GAMG:  Solving for p_rgh, Initial residual = 0.0843337, Final residual = 0.00047816, No Iterations 3
GAMG:  Solving for p_rgh, Initial residual = 0.00163325, Final residual = 7.00601e-08, No Iterations 15
diagonal:  Solving for rho, Initial residual = 0, Final residual = 0, No Iterations 0
time step continuity errors (oil): sum local = 9.24174e-09, global = 9.24169e-09, cumulative = 6.41562e-08

Solving for solid region sphere
DICPCG:  Solving for h, Initial residual = 0.103829, Final residual = 1.21e-07, No Iterations 3
Min/max T:499.857 499.999
ExecutionTime = 1.29 s  ClockTime = 1 s

Region: oil Courant Number mean: 1.10975e-05 max: 0.000567928
Region: sphere Diffusion Number mean: 0.0605341 max: 1.98151
deltaT = 0.00887354
Time = 0.0474492


Solving for fluid region oil
diagonal:  Solving for rho, Initial residual = 0, Final residual = 0, No Iterations 0
DILUPBiCGStab:  Solving for Ux, Initial residual = 0.0288391, Final residual = 1.08046e-08, No Iterations 2
DILUPBiCGStab:  Solving for Uy, Initial residual = 0.0625834, Final residual = 7.76107e-08, No Iterations 2
DILUPBiCGStab:  Solving for Uz, Initial residual = 0.0289008, Final residual = 1.11358e-08, No Iterations 2
DILUPBiCGStab:  Solving for h, Initial residual = 0.00889605, Final residual = 1.3584e-10, No Iterations 1
Min/max T:299.992 499.925
GAMG:  Solving for p_rgh, Initial residual = 0.0726641, Final residual = 0.000397979, No Iterations 3
GAMG:  Solving for p_rgh, Initial residual = 0.00155673, Final residual = 7.13063e-08, No Iterations 15
diagonal:  Solving for rho, Initial residual = 0, Final residual = 0, No Iterations 0
time step continuity errors (oil): sum local = 1.10184e-08, global = 1.10184e-08, cumulative = 7.51745e-08

Solving for solid region sphere
DICPCG:  Solving for h, Initial residual = 0.107111, Final residual = 2.56375e-07, No Iterations 3
Min/max T:499.846 499.998
ExecutionTime = 1.39 s  ClockTime = 2 s

Region: oil Courant Number mean: 1.24705e-05 max: 0.000661834
Region: sphere Diffusion Number mean: 0.0721757 max: 2.36258
deltaT = 0.0105244
Time = 0.0579737


Solving for fluid region oil
diagonal:  Solving for rho, Initial residual = 0, Final residual = 0, No Iterations 0
DILUPBiCGStab:  Solving for Ux, Initial residual = 0.0279675, Final residual = 1.35262e-08, No Iterations 2
DILUPBiCGStab:  Solving for Uy, Initial residual = 0.0618131, Final residual = 9.54599e-08, No Iterations 2
DILUPBiCGStab:  Solving for Uz, Initial residual = 0.0280312, Final residual = 1.39364e-08, No Iterations 2
DILUPBiCGStab:  Solving for h, Initial residual = 0.00859904, Final residual = 1.79631e-10, No Iterations 1
Min/max T:299.99 499.916
GAMG:  Solving for p_rgh, Initial residual = 0.0616666, Final residual = 0.000229321, No Iterations 3
GAMG:  Solving for p_rgh, Initial residual = 0.00143826, Final residual = 6.8872e-08, No Iterations 12
diagonal:  Solving for rho, Initial residual = 0, Final residual = 0, No Iterations 0
time step continuity errors (oil): sum local = 1.30858e-08, global = 1.30857e-08, cumulative = 8.82602e-08

Solving for solid region sphere
DICPCG:  Solving for h, Initial residual = 0.111053, Final residual = 5.31188e-07, No Iterations 3
Min/max T:499.834 499.997
ExecutionTime = 1.47 s  ClockTime = 2 s

Region: oil Courant Number mean: 1.39244e-05 max: 0.000768095
Region: sphere Diffusion Number mean: 0.0856043 max: 2.80216
deltaT = 0.0126293
Time = 0.070603


Solving for fluid region oil
diagonal:  Solving for rho, Initial residual = 0, Final residual = 0, No Iterations 0
DILUPBiCGStab:  Solving for Ux, Initial residual = 0.0277985, Final residual = 1.6743e-08, No Iterations 2
DILUPBiCGStab:  Solving for Uy, Initial residual = 0.0609161, Final residual = 8.18196e-10, No Iterations 2
DILUPBiCGStab:  Solving for Uz, Initial residual = 0.0278645, Final residual = 1.72299e-08, No Iterations 2
DILUPBiCGStab:  Solving for h, Initial residual = 0.00846228, Final residual = 2.48147e-10, No Iterations 1
Min/max T:299.988 499.906
GAMG:  Solving for p_rgh, Initial residual = 0.053214, Final residual = 0.000216385, No Iterations 3
GAMG:  Solving for p_rgh, Initial residual = 0.00153052, Final residual = 8.24443e-08, No Iterations 10
diagonal:  Solving for rho, Initial residual = 0, Final residual = 0, No Iterations 0
time step continuity errors (oil): sum local = 1.56896e-08, global = 1.56895e-08, cumulative = 1.0395e-07

Solving for solid region sphere
DICPCG:  Solving for h, Initial residual = 0.117048, Final residual = 2.94474e-08, No Iterations 4
Min/max T:499.821 499.994
ExecutionTime = 1.56 s  ClockTime = 2 s

Region: oil Courant Number mean: 1.57202e-05 max: 0.000903342
Region: sphere Diffusion Number mean: 0.102726 max: 3.36261
deltaT = 0.0153356
Time = 0.0859386


Solving for fluid region oil
diagonal:  Solving for rho, Initial residual = 0, Final residual = 0, No Iterations 0
DILUPBiCGStab:  Solving for Ux, Initial residual = 0.0274854, Final residual = 2.06386e-08, No Iterations 2
DILUPBiCGStab:  Solving for Uy, Initial residual = 0.0593642, Final residual = 1.07685e-09, No Iterations 2
DILUPBiCGStab:  Solving for Uz, Initial residual = 0.0275447, Final residual = 2.11671e-08, No Iterations 2
DILUPBiCGStab:  Solving for h, Initial residual = 0.00845275, Final residual = 3.575e-10, No Iterations 1
Min/max T:299.985 499.894
GAMG:  Solving for p_rgh, Initial residual = 0.0453879, Final residual = 0.000250231, No Iterations 3
GAMG:  Solving for p_rgh, Initial residual = 0.00169534, Final residual = 8.85864e-08, No Iterations 10
diagonal:  Solving for rho, Initial residual = 0, Final residual = 0, No Iterations 0
time step continuity errors (oil): sum local = 1.90421e-08, global = 1.90419e-08, cumulative = 1.22992e-07

Solving for solid region sphere
DICPCG:  Solving for h, Initial residual = 0.12428, Final residual = 8.52709e-08, No Iterations 4
Min/max T:499.807 499.991
ExecutionTime = 1.64 s  ClockTime = 2 s

Region: oil Courant Number mean: 1.79682e-05 max: 0.00107662
Region: sphere Diffusion Number mean: 0.12474 max: 4.08321
deltaT = 0.0180027
Time = 0.103941


Solving for fluid region oil
diagonal:  Solving for rho, Initial residual = 0, Final residual = 0, No Iterations 0
DILUPBiCGStab:  Solving for Ux, Initial residual = 0.0267478, Final residual = 2.45636e-08, No Iterations 2
DILUPBiCGStab:  Solving for Uy, Initial residual = 0.0565937, Final residual = 1.29089e-09, No Iterations 2
DILUPBiCGStab:  Solving for Uz, Initial residual = 0.0268014, Final residual = 2.50761e-08, No Iterations 2
DILUPBiCGStab:  Solving for h, Initial residual = 0.00816635, Final residual = 4.67716e-10, No Iterations 1
Min/max T:299.982 499.881
GAMG:  Solving for p_rgh, Initial residual = 0.036967, Final residual = 0.000238688, No Iterations 3
GAMG:  Solving for p_rgh, Initial residual = 0.00179906, Final residual = 5.95376e-08, No Iterations 11
diagonal:  Solving for rho, Initial residual = 0, Final residual = 0, No Iterations 0
time step continuity errors (oil): sum local = 2.23415e-08, global = 2.23414e-08, cumulative = 1.45333e-07

Solving for solid region sphere
DICPCG:  Solving for h, Initial residual = 0.128919, Final residual = 1.92578e-07, No Iterations 4
Min/max T:499.79 499.986
ExecutionTime = 1.72 s  ClockTime = 2 s

Region: oil Courant Number mean: 1.98954e-05 max: 0.00124173
Region: sphere Diffusion Number mean: 0.146435 max: 4.79339
deltaT = 0.0220033
Time = 0.125945


Solving for fluid region oil
diagonal:  Solving for rho, Initial residual = 0, Final residual = 0, No Iterations 0
DILUPBiCGStab:  Solving for Ux, Initial residual = 0.0266324, Final residual = 3.41364e-08, No Iterations 2
DILUPBiCGStab:  Solving for Uy, Initial residual = 0.0543126, Final residual = 1.59495e-09, No Iterations 2
DILUPBiCGStab:  Solving for Uz, Initial residual = 0.0266827, Final residual = 3.47261e-08, No Iterations 2
DILUPBiCGStab:  Solving for h, Initial residual = 0.00826082, Final residual = 6.96371e-10, No Iterations 1
Min/max T:299.978 499.867
GAMG:  Solving for p_rgh, Initial residual = 0.0332595, Final residual = 0.000219976, No Iterations 3
GAMG:  Solving for p_rgh, Initial residual = 0.00203669, Final residual = 7.41322e-08, No Iterations 10
diagonal:  Solving for rho, Initial residual = 0, Final residual = 0, No Iterations 0
time step continuity errors (oil): sum local = 2.72865e-08, global = 2.72864e-08, cumulative = 1.7262e-07

Solving for solid region sphere
DICPCG:  Solving for h, Initial residual = 0.138722, Final residual = 5.26723e-07, No Iterations 4
Min/max T:499.772 499.979
ExecutionTime = 1.79 s  ClockTime = 2 s

Region: oil Courant Number mean: 2.29804e-05 max: 0.00151425
Region: sphere Diffusion Number mean: 0.178979 max: 5.85865
deltaT = 0.0267182
Time = 0.152663


Solving for fluid region oil
diagonal:  Solving for rho, Initial residual = 0, Final residual = 0, No Iterations 0
DILUPBiCGStab:  Solving for Ux, Initial residual = 0.0263934, Final residual = 5.38004e-08, No Iterations 2
DILUPBiCGStab:  Solving for Uy, Initial residual = 0.0517289, Final residual = 1.89249e-09, No Iterations 2
DILUPBiCGStab:  Solving for Uz, Initial residual = 0.0264633, Final residual = 5.46545e-08, No Iterations 2
DILUPBiCGStab:  Solving for h, Initial residual = 0.00828584, Final residual = 1.01888e-09, No Iterations 1
Min/max T:299.973 499.85
GAMG:  Solving for p_rgh, Initial residual = 0.0292448, Final residual = 0.000225764, No Iterations 3
GAMG:  Solving for p_rgh, Initial residual = 0.00231375, Final residual = 9.50446e-08, No Iterations 10
diagonal:  Solving for rho, Initial residual = 0, Final residual = 0, No Iterations 0
time step continuity errors (oil): sum local = 3.31049e-08, global = 3.31047e-08, cumulative = 2.05724e-07

Solving for solid region sphere
DICPCG:  Solving for h, Initial residual = 0.148965, Final residual = 7.50619e-08, No Iterations 5
Min/max T:499.751 499.968
ExecutionTime = 1.87 s  ClockTime = 2 s

Region: oil Courant Number mean: 2.64384e-05 max: 0.00187577
Region: sphere Diffusion Number mean: 0.217335 max: 7.11418
deltaT = 0.0315761
Time = 0.184239


Solving for fluid region oil
diagonal:  Solving for rho, Initial residual = 0, Final residual = 0, No Iterations 0
DILUPBiCGStab:  Solving for Ux, Initial residual = 0.0263027, Final residual = 8.43977e-08, No Iterations 2
DILUPBiCGStab:  Solving for Uy, Initial residual = 0.0489374, Final residual = 2.11826e-09, No Iterations 2
DILUPBiCGStab:  Solving for Uz, Initial residual = 0.0263929, Final residual = 8.57042e-08, No Iterations 2
DILUPBiCGStab:  Solving for h, Initial residual = 0.00808609, Final residual = 1.37839e-09, No Iterations 1
Min/max T:299.968 499.83
GAMG:  Solving for p_rgh, Initial residual = 0.0259996, Final residual = 0.000129815, No Iterations 3
GAMG:  Solving for p_rgh, Initial residual = 0.00251806, Final residual = 8.89276e-08, No Iterations 10
diagonal:  Solving for rho, Initial residual = 0, Final residual = 0, No Iterations 0
time step continuity errors (oil): sum local = 3.90862e-08, global = 3.9086e-08, cumulative = 2.4481e-07

Solving for solid region sphere
DICPCG:  Solving for h, Initial residual = 0.157416, Final residual = 1.81607e-07, No Iterations 5
Min/max T:499.728 499.954
ExecutionTime = 1.97 s  ClockTime = 2 s

Region: oil Courant Number mean: 2.96835e-05 max: 0.00225484
Region: sphere Diffusion Number mean: 0.256854 max: 8.40781
deltaT = 0.0394701
Time = 0.223709


Solving for fluid region oil
diagonal:  Solving for rho, Initial residual = 0, Final residual = 0, No Iterations 0
DILUPBiCGStab:  Solving for Ux, Initial residual = 0.0272371, Final residual = 8.1905e-10, No Iterations 2
DILUPBiCGStab:  Solving for Uy, Initial residual = 0.0477714, Final residual = 2.42114e-09, No Iterations 2
DILUPBiCGStab:  Solving for Uz, Initial residual = 0.0273176, Final residual = 8.55041e-10, No Iterations 2
DILUPBiCGStab:  Solving for h, Initial residual = 0.00837716, Final residual = 2.2162e-09, No Iterations 1
Min/max T:299.961 499.807
GAMG:  Solving for p_rgh, Initial residual = 0.0258584, Final residual = 0.000138251, No Iterations 3
GAMG:  Solving for p_rgh, Initial residual = 0.00302129, Final residual = 8.95869e-08, No Iterations 11
diagonal:  Solving for rho, Initial residual = 0, Final residual = 0, No Iterations 0
time step continuity errors (oil): sum local = 4.87927e-08, global = 4.87924e-08, cumulative = 2.93603e-07

Solving for solid region sphere
DICPCG:  Solving for h, Initial residual = 0.173206, Final residual = 5.69319e-07, No Iterations 5
Min/max T:499.701 499.934
ExecutionTime = 2.05 s  ClockTime = 2 s

Region: oil Courant Number mean: 3.53191e-05 max: 0.00286301
Region: sphere Diffusion Number mean: 0.321075 max: 10.51
deltaT = 0.0394701
Time = 0.263179


Solving for fluid region oil
diagonal:  Solving for rho, Initial residual = 0, Final residual = 0, No Iterations 0
DILUPBiCGStab:  Solving for Ux, Initial residual = 0.0260217, Final residual = 9.1326e-10, No Iterations 2
DILUPBiCGStab:  Solving for Uy, Initial residual = 0.0446825, Final residual = 2.28224e-09, No Iterations 2
DILUPBiCGStab:  Solving for Uz, Initial residual = 0.0260979, Final residual = 9.5598e-10, No Iterations 2
DILUPBiCGStab:  Solving for h, Initial residual = 0.00691304, Final residual = 1.82283e-09, No Iterations 1
Min/max T:299.954 499.778
GAMG:  Solving for p_rgh, Initial residual = 0.0208127, Final residual = 9.98787e-05, No Iterations 3
GAMG:  Solving for p_rgh, Initial residual = 0.00304263, Final residual = 6.56275e-08, No Iterations 12
diagonal:  Solving for rho, Initial residual = 0, Final residual = 0, No Iterations 0
time step continuity errors (oil): sum local = 4.87552e-08, global = 4.8755e-08, cumulative = 3.42358e-07

Solving for solid region sphere
DICPCG:  Solving for h, Initial residual = 0.165575, Final residual = 5.17035e-07, No Iterations 5
Min/max T:499.67 499.912
ExecutionTime = 2.13 s  ClockTime = 2 s

Region: oil Courant Number mean: 3.37392e-05 max: 0.00289667
Region: sphere Diffusion Number mean: 0.321081 max: 10.5102
deltaT = 0.0394701
Time = 0.302649


Solving for fluid region oil
diagonal:  Solving for rho, Initial residual = 0, Final residual = 0, No Iterations 0
DILUPBiCGStab:  Solving for Ux, Initial residual = 0.0253689, Final residual = 9.29461e-10, No Iterations 2
DILUPBiCGStab:  Solving for Uy, Initial residual = 0.0420114, Final residual = 2.16051e-09, No Iterations 2
DILUPBiCGStab:  Solving for Uz, Initial residual = 0.0254364, Final residual = 9.75751e-10, No Iterations 2
DILUPBiCGStab:  Solving for h, Initial residual = 0.00588384, Final residual = 1.54783e-09, No Iterations 1
Min/max T:299.948 499.75
GAMG:  Solving for p_rgh, Initial residual = 0.018342, Final residual = 0.000118587, No Iterations 3
GAMG:  Solving for p_rgh, Initial residual = 0.00304175, Final residual = 8.917e-08, No Iterations 10
diagonal:  Solving for rho, Initial residual = 0, Final residual = 0, No Iterations 0
time step continuity errors (oil): sum local = 4.87178e-08, global = 4.87175e-08, cumulative = 3.91075e-07

Solving for solid region sphere
DICPCG:  Solving for h, Initial residual = 0.15978, Final residual = 5.26561e-07, No Iterations 5
Min/max T:499.639 499.89
ExecutionTime = 2.21 s  ClockTime = 2 s

Region: oil Courant Number mean: 3.23518e-05 max: 0.00292641
Region: sphere Diffusion Number mean: 0.321088 max: 10.5104
deltaT = 0.0394701
Time = 0.342119


Solving for fluid region oil
diagonal:  Solving for rho, Initial residual = 0, Final residual = 0, No Iterations 0
DILUPBiCGStab:  Solving for Ux, Initial residual = 0.0245763, Final residual = 9.45198e-10, No Iterations 2
DILUPBiCGStab:  Solving for Uy, Initial residual = 0.0395681, Final residual = 2.06625e-09, No Iterations 2
DILUPBiCGStab:  Solving for Uz, Initial residual = 0.0246332, Final residual = 9.94666e-10, No Iterations 2
DILUPBiCGStab:  Solving for h, Initial residual = 0.0051209, Final residual = 1.34563e-09, No Iterations 1
Min/max T:299.941 499.722
GAMG:  Solving for p_rgh, Initial residual = 0.0167141, Final residual = 0.000104798, No Iterations 3
GAMG:  Solving for p_rgh, Initial residual = 0.00297497, Final residual = 6.68193e-08, No Iterations 11
diagonal:  Solving for rho, Initial residual = 0, Final residual = 0, No Iterations 0
time step continuity errors (oil): sum local = 4.86813e-08, global = 4.8681e-08, cumulative = 4.39756e-07

Solving for solid region sphere
DICPCG:  Solving for h, Initial residual = 0.156168, Final residual = 5.28547e-07, No Iterations 5
Min/max T:499.61 499.866
ExecutionTime = 2.3 s  ClockTime = 2 s

Region: oil Courant Number mean: 3.11191e-05 max: 0.00295323
Region: sphere Diffusion Number mean: 0.321094 max: 10.5107
deltaT = 0.0394701
Time = 0.38159


Solving for fluid region oil
diagonal:  Solving for rho, Initial residual = 0, Final residual = 0, No Iterations 0
DILUPBiCGStab:  Solving for Ux, Initial residual = 0.0239997, Final residual = 9.43519e-10, No Iterations 2
DILUPBiCGStab:  Solving for Uy, Initial residual = 0.0373302, Final residual = 1.99425e-09, No Iterations 2
DILUPBiCGStab:  Solving for Uz, Initial residual = 0.024052, Final residual = 9.94822e-10, No Iterations 2
DILUPBiCGStab:  Solving for h, Initial residual = 0.00453268, Final residual = 1.1909e-09, No Iterations 1
Min/max T:299.935 499.694
GAMG:  Solving for p_rgh, Initial residual = 0.0155893, Final residual = 0.000106235, No Iterations 3
GAMG:  Solving for p_rgh, Initial residual = 0.00293229, Final residual = 8.48485e-08, No Iterations 10
diagonal:  Solving for rho, Initial residual = 0, Final residual = 0, No Iterations 0
time step continuity errors (oil): sum local = 4.8645e-08, global = 4.86447e-08, cumulative = 4.88401e-07

Solving for solid region sphere
DICPCG:  Solving for h, Initial residual = 0.153824, Final residual = 5.06746e-07, No Iterations 5
Min/max T:499.581 499.841
ExecutionTime = 2.38 s  ClockTime = 3 s

Region: oil Courant Number mean: 3.00114e-05 max: 0.00297763
Region: sphere Diffusion Number mean: 0.3211 max: 10.5109
deltaT = 0.0394701
Time = 0.42106


Solving for fluid region oil
diagonal:  Solving for rho, Initial residual = 0, Final residual = 0, No Iterations 0
DILUPBiCGStab:  Solving for Ux, Initial residual = 0.0234752, Final residual = 9.39673e-10, No Iterations 2
DILUPBiCGStab:  Solving for Uy, Initial residual = 0.0352641, Final residual = 1.94276e-09, No Iterations 2
DILUPBiCGStab:  Solving for Uz, Initial residual = 0.0235211, Final residual = 9.92286e-10, No Iterations 2
DILUPBiCGStab:  Solving for h, Initial residual = 0.00406533, Final residual = 1.06933e-09, No Iterations 1
Min/max T:299.928 499.666
GAMG:  Solving for p_rgh, Initial residual = 0.0147313, Final residual = 0.000107825, No Iterations 3
GAMG:  Solving for p_rgh, Initial residual = 0.00290889, Final residual = 6.50941e-08, No Iterations 11
diagonal:  Solving for rho, Initial residual = 0, Final residual = 0, No Iterations 0
time step continuity errors (oil): sum local = 4.86087e-08, global = 4.86085e-08, cumulative = 5.37009e-07

Solving for solid region sphere
DICPCG:  Solving for h, Initial residual = 0.152076, Final residual = 4.82594e-07, No Iterations 5
Min/max T:499.553 499.816
ExecutionTime = 2.46 s  ClockTime = 3 s

Region: oil Courant Number mean: 2.90109e-05 max: 0.00300003
Region: sphere Diffusion Number mean: 0.321106 max: 10.5111
deltaT = 0.0394701
Time = 0.46053


Solving for fluid region oil
diagonal:  Solving for rho, Initial residual = 0, Final residual = 0, No Iterations 0
DILUPBiCGStab:  Solving for Ux, Initial residual = 0.0230488, Final residual = 9.28087e-10, No Iterations 2
DILUPBiCGStab:  Solving for Uy, Initial residual = 0.0334321, Final residual = 1.91156e-09, No Iterations 2
DILUPBiCGStab:  Solving for Uz, Initial residual = 0.0230919, Final residual = 9.81413e-10, No Iterations 2
DILUPBiCGStab:  Solving for h, Initial residual = 0.00368507, Final residual = 9.71889e-10, No Iterations 1
Min/max T:299.921 499.638
GAMG:  Solving for p_rgh, Initial residual = 0.0140627, Final residual = 0.000102425, No Iterations 3
GAMG:  Solving for p_rgh, Initial residual = 0.00288262, Final residual = 6.81691e-08, No Iterations 11
diagonal:  Solving for rho, Initial residual = 0, Final residual = 0, No Iterations 0
time step continuity errors (oil): sum local = 4.85726e-08, global = 4.85724e-08, cumulative = 5.85582e-07

Solving for solid region sphere
DICPCG:  Solving for h, Initial residual = 0.150662, Final residual = 4.70934e-07, No Iterations 5
Min/max T:499.525 499.79
ExecutionTime = 2.55 s  ClockTime = 3 s

Region: oil Courant Number mean: 2.80971e-05 max: 0.00302069
Region: sphere Diffusion Number mean: 0.321113 max: 10.5113
deltaT = 0.0394701
Time = 0.5


Solving for fluid region oil
diagonal:  Solving for rho, Initial residual = 0, Final residual = 0, No Iterations 0
DILUPBiCGStab:  Solving for Ux, Initial residual = 0.0226663, Final residual = 9.12122e-10, No Iterations 2
DILUPBiCGStab:  Solving for Uy, Initial residual = 0.0317655, Final residual = 9.95652e-08, No Iterations 2
DILUPBiCGStab:  Solving for Uz, Initial residual = 0.0227048, Final residual = 9.66312e-10, No Iterations 2
DILUPBiCGStab:  Solving for h, Initial residual = 0.00336963, Final residual = 8.913e-10, No Iterations 1
Min/max T:299.915 499.611
GAMG:  Solving for p_rgh, Initial residual = 0.0135427, Final residual = 0.000101378, No Iterations 3
GAMG:  Solving for p_rgh, Initial residual = 0.00285728, Final residual = 6.65307e-08, No Iterations 11
diagonal:  Solving for rho, Initial residual = 0, Final residual = 0, No Iterations 0
time step continuity errors (oil): sum local = 4.85366e-08, global = 4.85364e-08, cumulative = 6.34118e-07

Solving for solid region sphere
DICPCG:  Solving for h, Initial residual = 0.149559, Final residual = 4.68057e-07, No Iterations 5
Min/max T:499.497 499.764
ExecutionTime = 2.75 s  ClockTime = 3 s

wallHeatFlux wallHeatFlux1 write:
    writing field wallHeatFlux
    min/max/integ(maxY) = 0, 0, 0
    min/max/integ(minX) = 0, 0, 0
    min/max/integ(maxX) = 0, 0, 0
    min/max/integ(minY) = 0, 0, 0
    min/max/integ(minZ) = 0, 0, 0
    min/max/integ(maxZ) = 0, 0, 0
    min/max/integ(oil_to_sphere) = 8109.78, 26792.3, 42.232
Region: oil Courant Number mean: 2.72516e-05 max: 0.00303983
Region: sphere Diffusion Number mean: 0.321119 max: 10.5115
deltaT = 0.0384615
Time = 0.538462


Solving for fluid region oil
diagonal:  Solving for rho, Initial residual = 0, Final residual = 0, No Iterations 0
DILUPBiCGStab:  Solving for Ux, Initial residual = 0.0220327, Final residual = 8.98439e-10, No Iterations 2
DILUPBiCGStab:  Solving for Uy, Initial residual = 0.0300124, Final residual = 9.07409e-08, No Iterations 2
DILUPBiCGStab:  Solving for Uz, Initial residual = 0.0220641, Final residual = 9.503e-10, No Iterations 2
DILUPBiCGStab:  Solving for h, Initial residual = 0.00302471, Final residual = 7.62096e-10, No Iterations 1
Min/max T:299.909 499.583
GAMG:  Solving for p_rgh, Initial residual = 0.0129617, Final residual = 0.000114704, No Iterations 3
GAMG:  Solving for p_rgh, Initial residual = 0.00278616, Final residual = 9.90242e-08, No Iterations 10
diagonal:  Solving for rho, Initial residual = 0, Final residual = 0, No Iterations 0
time step continuity errors (oil): sum local = 4.72658e-08, global = 4.72654e-08, cumulative = 6.81384e-07

Solving for solid region sphere
DICPCG:  Solving for h, Initial residual = 0.146183, Final residual = 4.05978e-07, No Iterations 5
Min/max T:499.47 499.739
ExecutionTime = 2.84 s  ClockTime = 3 s

Region: oil Courant Number mean: 2.57935e-05 max: 0.00297868
Region: sphere Diffusion Number mean: 0.312919 max: 10.2431
deltaT = 0.0384615
Time = 0.576923


Solving for fluid region oil
diagonal:  Solving for rho, Initial residual = 0, Final residual = 0, No Iterations 0
DILUPBiCGStab:  Solving for Ux, Initial residual = 0.0217549, Final residual = 8.71677e-10, No Iterations 2
DILUPBiCGStab:  Solving for Uy, Initial residual = 0.0286498, Final residual = 8.53879e-08, No Iterations 2
DILUPBiCGStab:  Solving for Uz, Initial residual = 0.0217788, Final residual = 9.23495e-10, No Iterations 2
DILUPBiCGStab:  Solving for h, Initial residual = 0.00280856, Final residual = 7.09625e-10, No Iterations 1
Min/max T:299.902 499.557
GAMG:  Solving for p_rgh, Initial residual = 0.0125103, Final residual = 0.000101957, No Iterations 3
GAMG:  Solving for p_rgh, Initial residual = 0.0027384, Final residual = 8.34061e-08, No Iterations 10
diagonal:  Solving for rho, Initial residual = 0, Final residual = 0, No Iterations 0
time step continuity errors (oil): sum local = 4.72317e-08, global = 4.72314e-08, cumulative = 7.28615e-07

Solving for solid region sphere
DICPCG:  Solving for h, Initial residual = 0.14563, Final residual = 4.07446e-07, No Iterations 5
Min/max T:499.443 499.713
ExecutionTime = 2.92 s  ClockTime = 3 s

Region: oil Courant Number mean: 2.5087e-05 max: 0.00299476
Region: sphere Diffusion Number mean: 0.312925 max: 10.2432
deltaT = 0.0384615
Time = 0.615385


Solving for fluid region oil
diagonal:  Solving for rho, Initial residual = 0, Final residual = 0, No Iterations 0
DILUPBiCGStab:  Solving for Ux, Initial residual = 0.0214905, Final residual = 8.49344e-10, No Iterations 2
DILUPBiCGStab:  Solving for Uy, Initial residual = 0.027428, Final residual = 8.17439e-08, No Iterations 2
DILUPBiCGStab:  Solving for Uz, Initial residual = 0.0215093, Final residual = 9.0108e-10, No Iterations 2
DILUPBiCGStab:  Solving for h, Initial residual = 0.0026211, Final residual = 6.64232e-10, No Iterations 1
Min/max T:299.896 499.53
GAMG:  Solving for p_rgh, Initial residual = 0.0121957, Final residual = 0.000100736, No Iterations 3
GAMG:  Solving for p_rgh, Initial residual = 0.00271012, Final residual = 8.56744e-08, No Iterations 10
diagonal:  Solving for rho, Initial residual = 0, Final residual = 0, No Iterations 0
time step continuity errors (oil): sum local = 4.71979e-08, global = 4.71977e-08, cumulative = 7.75813e-07

Solving for solid region sphere
DICPCG:  Solving for h, Initial residual = 0.145297, Final residual = 4.0189e-07, No Iterations 5
Min/max T:499.417 499.687
ExecutionTime = 3.02 s  ClockTime = 3 s

Region: oil Courant Number mean: 2.44352e-05 max: 0.00300991
Region: sphere Diffusion Number mean: 0.31293 max: 10.2434
deltaT = 0.0384615
Time = 0.653846


Solving for fluid region oil
diagonal:  Solving for rho, Initial residual = 0, Final residual = 0, No Iterations 0
DILUPBiCGStab:  Solving for Ux, Initial residual = 0.021291, Final residual = 8.26174e-10, No Iterations 2
DILUPBiCGStab:  Solving for Uy, Initial residual = 0.0263896, Final residual = 7.95702e-08, No Iterations 2
DILUPBiCGStab:  Solving for Uz, Initial residual = 0.0213049, Final residual = 8.77458e-10, No Iterations 2
DILUPBiCGStab:  Solving for h, Initial residual = 0.00245699, Final residual = 6.24651e-10, No Iterations 1
Min/max T:299.89 499.503
GAMG:  Solving for p_rgh, Initial residual = 0.0119276, Final residual = 0.000101715, No Iterations 3
GAMG:  Solving for p_rgh, Initial residual = 0.00269027, Final residual = 8.60392e-08, No Iterations 10
diagonal:  Solving for rho, Initial residual = 0, Final residual = 0, No Iterations 0
time step continuity errors (oil): sum local = 4.71641e-08, global = 4.71638e-08, cumulative = 8.22977e-07

Solving for solid region sphere
DICPCG:  Solving for h, Initial residual = 0.145021, Final residual = 3.96779e-07, No Iterations 5
Min/max T:499.39 499.661
ExecutionTime = 3.09 s  ClockTime = 3 s

Region: oil Courant Number mean: 2.38288e-05 max: 0.00302421
Region: sphere Diffusion Number mean: 0.312936 max: 10.2436
deltaT = 0.0384615
Time = 0.692308


Solving for fluid region oil
diagonal:  Solving for rho, Initial residual = 0, Final residual = 0, No Iterations 0
DILUPBiCGStab:  Solving for Ux, Initial residual = 0.0211202, Final residual = 8.03576e-10, No Iterations 2
DILUPBiCGStab:  Solving for Uy, Initial residual = 0.0255006, Final residual = 7.87483e-08, No Iterations 2
DILUPBiCGStab:  Solving for Uz, Initial residual = 0.021137, Final residual = 8.54105e-10, No Iterations 2
DILUPBiCGStab:  Solving for h, Initial residual = 0.00231211, Final residual = 5.8981e-10, No Iterations 1
Min/max T:299.883 499.477
GAMG:  Solving for p_rgh, Initial residual = 0.011678, Final residual = 0.000101341, No Iterations 3
GAMG:  Solving for p_rgh, Initial residual = 0.00266894, Final residual = 9.51983e-08, No Iterations 10
diagonal:  Solving for rho, Initial residual = 0, Final residual = 0, No Iterations 0
time step continuity errors (oil): sum local = 4.71304e-08, global = 4.71301e-08, cumulative = 8.70107e-07

Solving for solid region sphere
DICPCG:  Solving for h, Initial residual = 0.144774, Final residual = 3.95419e-07, No Iterations 5
Min/max T:499.364 499.635
ExecutionTime = 3.17 s  ClockTime = 3 s

Region: oil Courant Number mean: 2.32626e-05 max: 0.00303776
Region: sphere Diffusion Number mean: 0.312942 max: 10.2438
deltaT = 0.0384615
Time = 0.730769


Solving for fluid region oil
diagonal:  Solving for rho, Initial residual = 0, Final residual = 0, No Iterations 0
DILUPBiCGStab:  Solving for Ux, Initial residual = 0.020987, Final residual = 7.80249e-10, No Iterations 2
DILUPBiCGStab:  Solving for Uy, Initial residual = 0.0247452, Final residual = 7.91131e-08, No Iterations 2
DILUPBiCGStab:  Solving for Uz, Initial residual = 0.0210034, Final residual = 8.30459e-10, No Iterations 2
DILUPBiCGStab:  Solving for h, Initial residual = 0.00218328, Final residual = 5.58894e-10, No Iterations 1
Min/max T:299.877 499.45
GAMG:  Solving for p_rgh, Initial residual = 0.0114622, Final residual = 0.000100126, No Iterations 3
GAMG:  Solving for p_rgh, Initial residual = 0.002644, Final residual = 9.26487e-08, No Iterations 10
diagonal:  Solving for rho, Initial residual = 0, Final residual = 0, No Iterations 0
time step continuity errors (oil): sum local = 4.70968e-08, global = 4.70965e-08, cumulative = 9.17203e-07

Solving for solid region sphere
DICPCG:  Solving for h, Initial residual = 0.144576, Final residual = 3.95796e-07, No Iterations 5
Min/max T:499.338 499.609
ExecutionTime = 3.25 s  ClockTime = 3 s

Region: oil Courant Number mean: 2.27292e-05 max: 0.00305064
Region: sphere Diffusion Number mean: 0.312948 max: 10.244
deltaT = 0.0384615
Time = 0.769231


Solving for fluid region oil
diagonal:  Solving for rho, Initial residual = 0, Final residual = 0, No Iterations 0
DILUPBiCGStab:  Solving for Ux, Initial residual = 0.0208766, Final residual = 7.57209e-10, No Iterations 2
DILUPBiCGStab:  Solving for Uy, Initial residual = 0.0240843, Final residual = 8.0445e-08, No Iterations 2
DILUPBiCGStab:  Solving for Uz, Initial residual = 0.0208946, Final residual = 8.06344e-10, No Iterations 2
DILUPBiCGStab:  Solving for h, Initial residual = 0.00206797, Final residual = 5.31328e-10, No Iterations 1
Min/max T:299.871 499.424
GAMG:  Solving for p_rgh, Initial residual = 0.0112684, Final residual = 9.83325e-05, No Iterations 3
GAMG:  Solving for p_rgh, Initial residual = 0.0026189, Final residual = 9.01953e-08, No Iterations 10
diagonal:  Solving for rho, Initial residual = 0, Final residual = 0, No Iterations 0
time step continuity errors (oil): sum local = 4.70632e-08, global = 4.70629e-08, cumulative = 9.64266e-07

Solving for solid region sphere
DICPCG:  Solving for h, Initial residual = 0.144436, Final residual = 3.95774e-07, No Iterations 5
Min/max T:499.312 499.582
ExecutionTime = 3.33 s  ClockTime = 3 s

Region: oil Courant Number mean: 2.22266e-05 max: 0.00306292
Region: sphere Diffusion Number mean: 0.312953 max: 10.2442
deltaT = 0.0384615
Time = 0.807692


Solving for fluid region oil
diagonal:  Solving for rho, Initial residual = 0, Final residual = 0, No Iterations 0
DILUPBiCGStab:  Solving for Ux, Initial residual = 0.0207857, Final residual = 7.34655e-10, No Iterations 2
DILUPBiCGStab:  Solving for Uy, Initial residual = 0.0234976, Final residual = 8.25052e-08, No Iterations 2
DILUPBiCGStab:  Solving for Uz, Initial residual = 0.0208072, Final residual = 7.82223e-10, No Iterations 2
DILUPBiCGStab:  Solving for h, Initial residual = 0.00196415, Final residual = 5.06479e-10, No Iterations 1
Min/max T:299.865 499.398
GAMG:  Solving for p_rgh, Initial residual = 0.0110874, Final residual = 9.57786e-05, No Iterations 3
GAMG:  Solving for p_rgh, Initial residual = 0.00259309, Final residual = 8.47426e-08, No Iterations 10
diagonal:  Solving for rho, Initial residual = 0, Final residual = 0, No Iterations 0
time step continuity errors (oil): sum local = 4.70297e-08, global = 4.70294e-08, cumulative = 1.0113e-06

Solving for solid region sphere
DICPCG:  Solving for h, Initial residual = 0.14434, Final residual = 3.9509e-07, No Iterations 5
Min/max T:499.286 499.556
ExecutionTime = 3.41 s  ClockTime = 4 s

Region: oil Courant Number mean: 2.17499e-05 max: 0.00307468
Region: sphere Diffusion Number mean: 0.312959 max: 10.2444
deltaT = 0.0384615
Time = 0.846154


Solving for fluid region oil
diagonal:  Solving for rho, Initial residual = 0, Final residual = 0, No Iterations 0
DILUPBiCGStab:  Solving for Ux, Initial residual = 0.0207132, Final residual = 7.12027e-10, No Iterations 2
DILUPBiCGStab:  Solving for Uy, Initial residual = 0.0229679, Final residual = 8.51291e-08, No Iterations 2
DILUPBiCGStab:  Solving for Uz, Initial residual = 0.0207379, Final residual = 7.58734e-10, No Iterations 2
DILUPBiCGStab:  Solving for h, Initial residual = 0.0018702, Final residual = 4.83928e-10, No Iterations 1
Min/max T:299.859 499.371
GAMG:  Solving for p_rgh, Initial residual = 0.0109235, Final residual = 9.27309e-05, No Iterations 3
GAMG:  Solving for p_rgh, Initial residual = 0.00256794, Final residual = 8.3768e-08, No Iterations 10
diagonal:  Solving for rho, Initial residual = 0, Final residual = 0, No Iterations 0
time step continuity errors (oil): sum local = 4.69963e-08, global = 4.6996e-08, cumulative = 1.05829e-06

Solving for solid region sphere
DICPCG:  Solving for h, Initial residual = 0.144269, Final residual = 3.94416e-07, No Iterations 5
Min/max T:499.26 499.53
ExecutionTime = 3.49 s  ClockTime = 4 s

Region: oil Courant Number mean: 2.12983e-05 max: 0.00308596
Region: sphere Diffusion Number mean: 0.312965 max: 10.2446
deltaT = 0.0384615
Time = 0.884615


Solving for fluid region oil
diagonal:  Solving for rho, Initial residual = 0, Final residual = 0, No Iterations 0
DILUPBiCGStab:  Solving for Ux, Initial residual = 0.0206591, Final residual = 6.90585e-10, No Iterations 2
DILUPBiCGStab:  Solving for Uy, Initial residual = 0.022476, Final residual = 8.82408e-08, No Iterations 2
DILUPBiCGStab:  Solving for Uz, Initial residual = 0.0206852, Final residual = 7.35449e-10, No Iterations 2
DILUPBiCGStab:  Solving for h, Initial residual = 0.00178476, Final residual = 4.63377e-10, No Iterations 1
Min/max T:299.853 499.345
GAMG:  Solving for p_rgh, Initial residual = 0.0107714, Final residual = 8.94994e-05, No Iterations 3
GAMG:  Solving for p_rgh, Initial residual = 0.0025428, Final residual = 8.23409e-08, No Iterations 10
diagonal:  Solving for rho, Initial residual = 0, Final residual = 0, No Iterations 0
time step continuity errors (oil): sum local = 4.6963e-08, global = 4.69627e-08, cumulative = 1.10525e-06

Solving for solid region sphere
DICPCG:  Solving for h, Initial residual = 0.144213, Final residual = 3.94113e-07, No Iterations 5
Min/max T:499.233 499.504
ExecutionTime = 3.58 s  ClockTime = 4 s

Region: oil Courant Number mean: 2.0868e-05 max: 0.00309682
Region: sphere Diffusion Number mean: 0.31297 max: 10.2447
deltaT = 0.0384615
Time = 0.923077


Solving for fluid region oil
diagonal:  Solving for rho, Initial residual = 0, Final residual = 0, No Iterations 0
DILUPBiCGStab:  Solving for Ux, Initial residual = 0.0206172, Final residual = 6.70209e-10, No Iterations 2
DILUPBiCGStab:  Solving for Uy, Initial residual = 0.0220174, Final residual = 9.17424e-08, No Iterations 2
DILUPBiCGStab:  Solving for Uz, Initial residual = 0.0206449, Final residual = 7.13049e-10, No Iterations 2
DILUPBiCGStab:  Solving for h, Initial residual = 0.00170673, Final residual = 4.44737e-10, No Iterations 1
Min/max T:299.847 499.319
GAMG:  Solving for p_rgh, Initial residual = 0.0106396, Final residual = 8.62922e-05, No Iterations 3
GAMG:  Solving for p_rgh, Initial residual = 0.0025187, Final residual = 7.22278e-08, No Iterations 10
diagonal:  Solving for rho, Initial residual = 0, Final residual = 0, No Iterations 0
time step continuity errors (oil): sum local = 4.69297e-08, global = 4.69294e-08, cumulative = 1.15218e-06

Solving for solid region sphere
DICPCG:  Solving for h, Initial residual = 0.144171, Final residual = 3.9405e-07, No Iterations 5
Min/max T:499.207 499.478
ExecutionTime = 3.66 s  ClockTime = 4 s

Region: oil Courant Number mean: 2.04585e-05 max: 0.00310734
Region: sphere Diffusion Number mean: 0.312976 max: 10.2449
deltaT = 0.0384615
Time = 0.961538


Solving for fluid region oil
diagonal:  Solving for rho, Initial residual = 0, Final residual = 0, No Iterations 0
DILUPBiCGStab:  Solving for Ux, Initial residual = 0.0205874, Final residual = 6.50159e-10, No Iterations 2
DILUPBiCGStab:  Solving for Uy, Initial residual = 0.0215943, Final residual = 9.55526e-08, No Iterations 2
DILUPBiCGStab:  Solving for Uz, Initial residual = 0.0206167, Final residual = 6.91418e-10, No Iterations 2
DILUPBiCGStab:  Solving for h, Initial residual = 0.00163519, Final residual = 4.27693e-10, No Iterations 1
Min/max T:299.84 499.293
GAMG:  Solving for p_rgh, Initial residual = 0.0105104, Final residual = 8.30749e-05, No Iterations 3
GAMG:  Solving for p_rgh, Initial residual = 0.00249421, Final residual = 6.90995e-08, No Iterations 10
diagonal:  Solving for rho, Initial residual = 0, Final residual = 0, No Iterations 0
time step continuity errors (oil): sum local = 4.68965e-08, global = 4.68963e-08, cumulative = 1.19908e-06

Solving for solid region sphere
DICPCG:  Solving for h, Initial residual = 0.144141, Final residual = 3.94004e-07, No Iterations 5
Min/max T:499.181 499.451
ExecutionTime = 3.74 s  ClockTime = 4 s

Region: oil Courant Number mean: 2.00682e-05 max: 0.00311752
Region: sphere Diffusion Number mean: 0.312982 max: 10.2451
deltaT = 0.0384615
Time = 1


Solving for fluid region oil
diagonal:  Solving for rho, Initial residual = 0, Final residual = 0, No Iterations 0
DILUPBiCGStab:  Solving for Ux, Initial residual = 0.020567, Final residual = 6.30938e-10, No Iterations 2
DILUPBiCGStab:  Solving for Uy, Initial residual = 0.0211978, Final residual = 9.95613e-08, No Iterations 2
DILUPBiCGStab:  Solving for Uz, Initial residual = 0.0205976, Final residual = 6.70677e-10, No Iterations 2
DILUPBiCGStab:  Solving for h, Initial residual = 0.00156935, Final residual = 4.1206e-10, No Iterations 1
Min/max T:299.834 499.267
GAMG:  Solving for p_rgh, Initial residual = 0.0103819, Final residual = 8.0114e-05, No Iterations 3
GAMG:  Solving for p_rgh, Initial residual = 0.00247021, Final residual = 8.36114e-08, No Iterations 10
diagonal:  Solving for rho, Initial residual = 0, Final residual = 0, No Iterations 0
time step continuity errors (oil): sum local = 4.68634e-08, global = 4.68632e-08, cumulative = 1.24594e-06

Solving for solid region sphere
DICPCG:  Solving for h, Initial residual = 0.144121, Final residual = 3.93917e-07, No Iterations 5
Min/max T:499.155 499.425
ExecutionTime = 3.94 s  ClockTime = 4 s

wallHeatFlux wallHeatFlux1 write:
    writing field wallHeatFlux
    min/max/integ(maxY) = 0, 0, 0
    min/max/integ(minX) = 0, 0, 0
    min/max/integ(maxX) = 0, 0, 0
    min/max/integ(minY) = 0, 0, 0
    min/max/integ(minZ) = 0, 0, 0
    min/max/integ(maxZ) = 0, 0, 0
    min/max/integ(oil_to_sphere) = 8088.53, 26348.7, 41.8003
Region: oil Courant Number mean: 1.96959e-05 max: 0.00312738
Region: sphere Diffusion Number mean: 0.312988 max: 10.2453
deltaT = 0.0384615
Time = 1.03846


Solving for fluid region oil
diagonal:  Solving for rho, Initial residual = 0, Final residual = 0, No Iterations 0
DILUPBiCGStab:  Solving for Ux, Initial residual = 0.0205577, Final residual = 6.13092e-10, No Iterations 2
DILUPBiCGStab:  Solving for Uy, Initial residual = 0.020833, Final residual = 1.17719e-09, No Iterations 2
DILUPBiCGStab:  Solving for Uz, Initial residual = 0.0205896, Final residual = 6.50705e-10, No Iterations 2
DILUPBiCGStab:  Solving for h, Initial residual = 0.00150857, Final residual = 3.97627e-10, No Iterations 1
Min/max T:299.828 499.24
GAMG:  Solving for p_rgh, Initial residual = 0.0102591, Final residual = 7.70654e-05, No Iterations 3
GAMG:  Solving for p_rgh, Initial residual = 0.00244648, Final residual = 8.80568e-08, No Iterations 10
diagonal:  Solving for rho, Initial residual = 0, Final residual = 0, No Iterations 0
time step continuity errors (oil): sum local = 4.68304e-08, global = 4.68301e-08, cumulative = 1.29277e-06

Solving for solid region sphere
DICPCG:  Solving for h, Initial residual = 0.144108, Final residual = 3.93839e-07, No Iterations 5
Min/max T:499.13 499.399
ExecutionTime = 4.03 s  ClockTime = 4 s

Region: oil Courant Number mean: 1.93404e-05 max: 0.00313696
Region: sphere Diffusion Number mean: 0.312993 max: 10.2455
deltaT = 0.0384615
Time = 1.07692


Solving for fluid region oil
diagonal:  Solving for rho, Initial residual = 0, Final residual = 0, No Iterations 0
DILUPBiCGStab:  Solving for Ux, Initial residual = 0.0205576, Final residual = 5.959e-10, No Iterations 2
DILUPBiCGStab:  Solving for Uy, Initial residual = 0.0204999, Final residual = 1.08539e-09, No Iterations 2
DILUPBiCGStab:  Solving for Uz, Initial residual = 0.0205895, Final residual = 6.30776e-10, No Iterations 2
DILUPBiCGStab:  Solving for h, Initial residual = 0.00145229, Final residual = 3.84242e-10, No Iterations 1
Min/max T:299.822 499.214
GAMG:  Solving for p_rgh, Initial residual = 0.0101396, Final residual = 7.45182e-05, No Iterations 3
GAMG:  Solving for p_rgh, Initial residual = 0.00242343, Final residual = 9.22054e-08, No Iterations 10
diagonal:  Solving for rho, Initial residual = 0, Final residual = 0, No Iterations 0
time step continuity errors (oil): sum local = 4.67975e-08, global = 4.67972e-08, cumulative = 1.33957e-06

Solving for solid region sphere
DICPCG:  Solving for h, Initial residual = 0.1441, Final residual = 3.93808e-07, No Iterations 5
Min/max T:499.104 499.373
ExecutionTime = 4.12 s  ClockTime = 4 s

Region: oil Courant Number mean: 1.8999e-05 max: 0.00314629
Region: sphere Diffusion Number mean: 0.312999 max: 10.2457
deltaT = 0.0384615
Time = 1.11538


Solving for fluid region oil
diagonal:  Solving for rho, Initial residual = 0, Final residual = 0, No Iterations 0
DILUPBiCGStab:  Solving for Ux, Initial residual = 0.0205646, Final residual = 5.79796e-10, No Iterations 2
DILUPBiCGStab:  Solving for Uy, Initial residual = 0.0201838, Final residual = 1.00727e-09, No Iterations 2
DILUPBiCGStab:  Solving for Uz, Initial residual = 0.0205961, Final residual = 6.12499e-10, No Iterations 2
DILUPBiCGStab:  Solving for h, Initial residual = 0.00140001, Final residual = 3.71771e-10, No Iterations 1
Min/max T:299.816 499.188
GAMG:  Solving for p_rgh, Initial residual = 0.0100203, Final residual = 7.19902e-05, No Iterations 3
GAMG:  Solving for p_rgh, Initial residual = 0.00240089, Final residual = 9.45643e-08, No Iterations 10
diagonal:  Solving for rho, Initial residual = 0, Final residual = 0, No Iterations 0
time step continuity errors (oil): sum local = 4.67646e-08, global = 4.67643e-08, cumulative = 1.38633e-06

Solving for solid region sphere
DICPCG:  Solving for h, Initial residual = 0.144095, Final residual = 3.93816e-07, No Iterations 5
Min/max T:499.078 499.347
ExecutionTime = 4.2 s  ClockTime = 4 s

Region: oil Courant Number mean: 1.86703e-05 max: 0.0031554
Region: sphere Diffusion Number mean: 0.313005 max: 10.2459
deltaT = 0.0384615
Time = 1.15385


Solving for fluid region oil
diagonal:  Solving for rho, Initial residual = 0, Final residual = 0, No Iterations 0
DILUPBiCGStab:  Solving for Ux, Initial residual = 0.020582, Final residual = 5.64536e-10, No Iterations 2
DILUPBiCGStab:  Solving for Uy, Initial residual = 0.0198658, Final residual = 9.40302e-10, No Iterations 2
DILUPBiCGStab:  Solving for Uz, Initial residual = 0.0206112, Final residual = 5.9515e-10, No Iterations 2
DILUPBiCGStab:  Solving for h, Initial residual = 0.00135133, Final residual = 3.60144e-10, No Iterations 1
Min/max T:299.811 499.162
GAMG:  Solving for p_rgh, Initial residual = 0.00990309, Final residual = 6.96304e-05, No Iterations 3
GAMG:  Solving for p_rgh, Initial residual = 0.00237854, Final residual = 9.91452e-08, No Iterations 10
diagonal:  Solving for rho, Initial residual = 0, Final residual = 0, No Iterations 0
time step continuity errors (oil): sum local = 4.67318e-08, global = 4.67315e-08, cumulative = 1.43307e-06

Solving for solid region sphere
DICPCG:  Solving for h, Initial residual = 0.144094, Final residual = 3.93837e-07, No Iterations 5
Min/max T:499.052 499.321
ExecutionTime = 4.28 s  ClockTime = 4 s

Region: oil Courant Number mean: 1.83522e-05 max: 0.00316429
Region: sphere Diffusion Number mean: 0.31301 max: 10.2461
deltaT = 0.0384615
Time = 1.19231


Solving for fluid region oil
diagonal:  Solving for rho, Initial residual = 0, Final residual = 0, No Iterations 0
DILUPBiCGStab:  Solving for Ux, Initial residual = 0.0206054, Final residual = 5.50232e-10, No Iterations 2
DILUPBiCGStab:  Solving for Uy, Initial residual = 0.0195706, Final residual = 8.84693e-10, No Iterations 2
DILUPBiCGStab:  Solving for Uz, Initial residual = 0.020632, Final residual = 5.7851e-10, No Iterations 2
DILUPBiCGStab:  Solving for h, Initial residual = 0.00130589, Final residual = 3.49293e-10, No Iterations 1
Min/max T:299.805 499.136
GAMG:  Solving for p_rgh, Initial residual = 0.00979115, Final residual = 6.74459e-05, No Iterations 3
GAMG:  Solving for p_rgh, Initial residual = 0.00235461, Final residual = 9.49229e-08, No Iterations 10
diagonal:  Solving for rho, Initial residual = 0, Final residual = 0, No Iterations 0
time step continuity errors (oil): sum local = 4.66991e-08, global = 4.66988e-08, cumulative = 1.47976e-06

Solving for solid region sphere
DICPCG:  Solving for h, Initial residual = 0.144095, Final residual = 3.93861e-07, No Iterations 5
Min/max T:499.026 499.295
ExecutionTime = 4.37 s  ClockTime = 4 s

Region: oil Courant Number mean: 1.8045e-05 max: 0.003173
Region: sphere Diffusion Number mean: 0.313016 max: 10.2462
deltaT = 0.0384615
Time = 1.23077


Solving for fluid region oil
diagonal:  Solving for rho, Initial residual = 0, Final residual = 0, No Iterations 0
DILUPBiCGStab:  Solving for Ux, Initial residual = 0.020635, Final residual = 5.36573e-10, No Iterations 2
DILUPBiCGStab:  Solving for Uy, Initial residual = 0.0193002, Final residual = 8.39792e-10, No Iterations 2
DILUPBiCGStab:  Solving for Uz, Initial residual = 0.0206594, Final residual = 5.62782e-10, No Iterations 2
DILUPBiCGStab:  Solving for h, Initial residual = 0.00126338, Final residual = 3.39142e-10, No Iterations 1
Min/max T:299.799 499.11
GAMG:  Solving for p_rgh, Initial residual = 0.00967624, Final residual = 6.52296e-05, No Iterations 3
GAMG:  Solving for p_rgh, Initial residual = 0.0023301, Final residual = 8.72412e-08, No Iterations 10
diagonal:  Solving for rho, Initial residual = 0, Final residual = 0, No Iterations 0
time step continuity errors (oil): sum local = 4.66664e-08, global = 4.66661e-08, cumulative = 1.52643e-06

Solving for solid region sphere
DICPCG:  Solving for h, Initial residual = 0.144098, Final residual = 3.9389e-07, No Iterations 5
Min/max T:499 499.268
ExecutionTime = 4.45 s  ClockTime = 5 s

Region: oil Courant Number mean: 1.77494e-05 max: 0.00318153
Region: sphere Diffusion Number mean: 0.313022 max: 10.2464
deltaT = 0.0384615
Time = 1.26923


Solving for fluid region oil
diagonal:  Solving for rho, Initial residual = 0, Final residual = 0, No Iterations 0
DILUPBiCGStab:  Solving for Ux, Initial residual = 0.0206706, Final residual = 5.23893e-10, No Iterations 2
DILUPBiCGStab:  Solving for Uy, Initial residual = 0.01905, Final residual = 8.04505e-10, No Iterations 2
DILUPBiCGStab:  Solving for Uz, Initial residual = 0.020694, Final residual = 5.48019e-10, No Iterations 2
DILUPBiCGStab:  Solving for h, Initial residual = 0.00122352, Final residual = 3.29599e-10, No Iterations 1
Min/max T:299.793 499.084
GAMG:  Solving for p_rgh, Initial residual = 0.00956384, Final residual = 6.33918e-05, No Iterations 3
GAMG:  Solving for p_rgh, Initial residual = 0.00230605, Final residual = 8.71019e-08, No Iterations 10
diagonal:  Solving for rho, Initial residual = 0, Final residual = 0, No Iterations 0
time step continuity errors (oil): sum local = 4.66338e-08, global = 4.66335e-08, cumulative = 1.57306e-06

Solving for solid region sphere
DICPCG:  Solving for h, Initial residual = 0.144103, Final residual = 3.93927e-07, No Iterations 5
Min/max T:498.974 499.242
ExecutionTime = 4.55 s  ClockTime = 5 s

Region: oil Courant Number mean: 1.74638e-05 max: 0.00318991
Region: sphere Diffusion Number mean: 0.313027 max: 10.2466
deltaT = 0.0384615
Time = 1.30769


Solving for fluid region oil
diagonal:  Solving for rho, Initial residual = 0, Final residual = 0, No Iterations 0
DILUPBiCGStab:  Solving for Ux, Initial residual = 0.0207116, Final residual = 5.12329e-10, No Iterations 2
DILUPBiCGStab:  Solving for Uy, Initial residual = 0.0188245, Final residual = 7.78228e-10, No Iterations 2
DILUPBiCGStab:  Solving for Uz, Initial residual = 0.0207336, Final residual = 5.34379e-10, No Iterations 2
DILUPBiCGStab:  Solving for h, Initial residual = 0.00118607, Final residual = 3.20606e-10, No Iterations 1
Min/max T:299.787 499.058
GAMG:  Solving for p_rgh, Initial residual = 0.00945164, Final residual = 6.16089e-05, No Iterations 3
GAMG:  Solving for p_rgh, Initial residual = 0.00228152, Final residual = 9.11183e-08, No Iterations 10
diagonal:  Solving for rho, Initial residual = 0, Final residual = 0, No Iterations 0
time step continuity errors (oil): sum local = 4.66013e-08, global = 4.6601e-08, cumulative = 1.61967e-06

Solving for solid region sphere
DICPCG:  Solving for h, Initial residual = 0.144108, Final residual = 3.93971e-07, No Iterations 5
Min/max T:498.948 499.216
ExecutionTime = 4.62 s  ClockTime = 5 s

Region: oil Courant Number mean: 1.71882e-05 max: 0.00319814
Region: sphere Diffusion Number mean: 0.313033 max: 10.2468
deltaT = 0.0384615
Time = 1.34615


Solving for fluid region oil
diagonal:  Solving for rho, Initial residual = 0, Final residual = 0, No Iterations 0
DILUPBiCGStab:  Solving for Ux, Initial residual = 0.0207575, Final residual = 5.012e-10, No Iterations 2
DILUPBiCGStab:  Solving for Uy, Initial residual = 0.0186228, Final residual = 7.59027e-10, No Iterations 2
DILUPBiCGStab:  Solving for Uz, Initial residual = 0.0207777, Final residual = 5.2159e-10, No Iterations 2
DILUPBiCGStab:  Solving for h, Initial residual = 0.00115082, Final residual = 3.12151e-10, No Iterations 1
Min/max T:299.781 499.032
GAMG:  Solving for p_rgh, Initial residual = 0.00934042, Final residual = 5.98011e-05, No Iterations 3
GAMG:  Solving for p_rgh, Initial residual = 0.00225644, Final residual = 9.32307e-08, No Iterations 10
diagonal:  Solving for rho, Initial residual = 0, Final residual = 0, No Iterations 0
time step continuity errors (oil): sum local = 4.65689e-08, global = 4.65685e-08, cumulative = 1.66623e-06

Solving for solid region sphere
DICPCG:  Solving for h, Initial residual = 0.144114, Final residual = 3.94018e-07, No Iterations 5
Min/max T:498.923 499.19
ExecutionTime = 4.7 s  ClockTime = 5 s

Region: oil Courant Number mean: 1.69209e-05 max: 0.00320623
Region: sphere Diffusion Number mean: 0.313039 max: 10.247
deltaT = 0.0384615
Time = 1.38462


Solving for fluid region oil
diagonal:  Solving for rho, Initial residual = 0, Final residual = 0, No Iterations 0
DILUPBiCGStab:  Solving for Ux, Initial residual = 0.0208063, Final residual = 4.90885e-10, No Iterations 2
DILUPBiCGStab:  Solving for Uy, Initial residual = 0.0184401, Final residual = 7.45597e-10, No Iterations 2
DILUPBiCGStab:  Solving for Uz, Initial residual = 0.0208278, Final residual = 5.09137e-10, No Iterations 2
DILUPBiCGStab:  Solving for h, Initial residual = 0.00111758, Final residual = 3.04194e-10, No Iterations 1
Min/max T:299.775 499.006
GAMG:  Solving for p_rgh, Initial residual = 0.00922228, Final residual = 5.8369e-05, No Iterations 3
GAMG:  Solving for p_rgh, Initial residual = 0.002231, Final residual = 9.03425e-08, No Iterations 10
diagonal:  Solving for rho, Initial residual = 0, Final residual = 0, No Iterations 0
time step continuity errors (oil): sum local = 4.65365e-08, global = 4.65362e-08, cumulative = 1.71277e-06

Solving for solid region sphere
DICPCG:  Solving for h, Initial residual = 0.144121, Final residual = 3.94068e-07, No Iterations 5
Min/max T:498.897 499.164
ExecutionTime = 4.78 s  ClockTime = 5 s

Region: oil Courant Number mean: 1.6661e-05 max: 0.0032142
Region: sphere Diffusion Number mean: 0.313044 max: 10.2472
deltaT = 0.0384615
Time = 1.42308


Solving for fluid region oil
diagonal:  Solving for rho, Initial residual = 0, Final residual = 0, No Iterations 0
DILUPBiCGStab:  Solving for Ux, Initial residual = 0.020858, Final residual = 4.81632e-10, No Iterations 2
DILUPBiCGStab:  Solving for Uy, Initial residual = 0.0182703, Final residual = 7.36818e-10, No Iterations 2
DILUPBiCGStab:  Solving for Uz, Initial residual = 0.0208811, Final residual = 4.97945e-10, No Iterations 2
DILUPBiCGStab:  Solving for h, Initial residual = 0.00108618, Final residual = 2.96674e-10, No Iterations 1
Min/max T:299.77 498.98
GAMG:  Solving for p_rgh, Initial residual = 0.00910549, Final residual = 5.668e-05, No Iterations 3
GAMG:  Solving for p_rgh, Initial residual = 0.00220411, Final residual = 8.86704e-08, No Iterations 10
diagonal:  Solving for rho, Initial residual = 0, Final residual = 0, No Iterations 0
time step continuity errors (oil): sum local = 4.65042e-08, global = 4.65038e-08, cumulative = 1.75927e-06

Solving for solid region sphere
DICPCG:  Solving for h, Initial residual = 0.144128, Final residual = 3.9412e-07, No Iterations 5
Min/max T:498.871 499.138
ExecutionTime = 4.86 s  ClockTime = 5 s

Region: oil Courant Number mean: 1.64096e-05 max: 0.00322205
Region: sphere Diffusion Number mean: 0.31305 max: 10.2473
deltaT = 0.0384615
Time = 1.46154


Solving for fluid region oil
diagonal:  Solving for rho, Initial residual = 0, Final residual = 0, No Iterations 0
DILUPBiCGStab:  Solving for Ux, Initial residual = 0.0209122, Final residual = 4.72872e-10, No Iterations 2
DILUPBiCGStab:  Solving for Uy, Initial residual = 0.0181105, Final residual = 7.31968e-10, No Iterations 2
DILUPBiCGStab:  Solving for Uz, Initial residual = 0.0209391, Final residual = 4.87455e-10, No Iterations 2
DILUPBiCGStab:  Solving for h, Initial residual = 0.00105648, Final residual = 2.89563e-10, No Iterations 1
Min/max T:299.764 498.954
GAMG:  Solving for p_rgh, Initial residual = 0.00898628, Final residual = 5.53792e-05, No Iterations 3
GAMG:  Solving for p_rgh, Initial residual = 0.00217733, Final residual = 8.77786e-08, No Iterations 10
diagonal:  Solving for rho, Initial residual = 0, Final residual = 0, No Iterations 0
time step continuity errors (oil): sum local = 4.64719e-08, global = 4.64716e-08, cumulative = 1.80575e-06

Solving for solid region sphere
DICPCG:  Solving for h, Initial residual = 0.144136, Final residual = 3.94173e-07, No Iterations 5
Min/max T:498.845 499.112
ExecutionTime = 4.94 s  ClockTime = 5 s

Region: oil Courant Number mean: 1.61665e-05 max: 0.0032298
Region: sphere Diffusion Number mean: 0.313056 max: 10.2475
deltaT = 0.0384615
Time = 1.5


Solving for fluid region oil
diagonal:  Solving for rho, Initial residual = 0, Final residual = 0, No Iterations 0
DILUPBiCGStab:  Solving for Ux, Initial residual = 0.0209708, Final residual = 4.64987e-10, No Iterations 2
DILUPBiCGStab:  Solving for Uy, Initial residual = 0.0179635, Final residual = 7.30174e-10, No Iterations 2
DILUPBiCGStab:  Solving for Uz, Initial residual = 0.0210019, Final residual = 4.77617e-10, No Iterations 2
DILUPBiCGStab:  Solving for h, Initial residual = 0.00102834, Final residual = 2.82816e-10, No Iterations 1
Min/max T:299.758 498.928
GAMG:  Solving for p_rgh, Initial residual = 0.00886997, Final residual = 5.3861e-05, No Iterations 3
GAMG:  Solving for p_rgh, Initial residual = 0.00215105, Final residual = 8.80913e-08, No Iterations 10
diagonal:  Solving for rho, Initial residual = 0, Final residual = 0, No Iterations 0
time step continuity errors (oil): sum local = 4.64398e-08, global = 4.64394e-08, cumulative = 1.85219e-06

Solving for solid region sphere
DICPCG:  Solving for h, Initial residual = 0.144144, Final residual = 3.94228e-07, No Iterations 5
Min/max T:498.82 499.086
ExecutionTime = 5.14 s  ClockTime = 5 s

wallHeatFlux wallHeatFlux1 write:
    writing field wallHeatFlux
    min/max/integ(maxY) = 0, 0, 0
    min/max/integ(minX) = 0, 0, 0
    min/max/integ(maxX) = 0, 0, 0
    min/max/integ(minY) = 0, 0, 0
    min/max/integ(minZ) = 0, 0, 0
    min/max/integ(maxZ) = 0, 0, 0
    min/max/integ(oil_to_sphere) = 8067.49, 25918.4, 41.3803
Region: oil Courant Number mean: 1.59307e-05 max: 0.00323744
Region: sphere Diffusion Number mean: 0.313061 max: 10.2477
deltaT = 0.0384615
Time = 1.53846


Solving for fluid region oil
diagonal:  Solving for rho, Initial residual = 0, Final residual = 0, No Iterations 0
DILUPBiCGStab:  Solving for Ux, Initial residual = 0.0210322, Final residual = 4.57655e-10, No Iterations 2
DILUPBiCGStab:  Solving for Uy, Initial residual = 0.017826, Final residual = 7.30409e-10, No Iterations 2
DILUPBiCGStab:  Solving for Uz, Initial residual = 0.021066, Final residual = 4.6864e-10, No Iterations 2
DILUPBiCGStab:  Solving for h, Initial residual = 0.00100164, Final residual = 2.764e-10, No Iterations 1
Min/max T:299.752 498.902
GAMG:  Solving for p_rgh, Initial residual = 0.00875727, Final residual = 5.27943e-05, No Iterations 3
GAMG:  Solving for p_rgh, Initial residual = 0.00212573, Final residual = 8.39812e-08, No Iterations 10
diagonal:  Solving for rho, Initial residual = 0, Final residual = 0, No Iterations 0
time step continuity errors (oil): sum local = 4.64076e-08, global = 4.64073e-08, cumulative = 1.89859e-06

Solving for solid region sphere
DICPCG:  Solving for h, Initial residual = 0.144152, Final residual = 3.94284e-07, No Iterations 5
Min/max T:498.794 499.06
ExecutionTime = 5.24 s  ClockTime = 5 s

Region: oil Courant Number mean: 1.57021e-05 max: 0.003245
Region: sphere Diffusion Number mean: 0.313067 max: 10.2479
deltaT = 0.0384615
Time = 1.57692


Solving for fluid region oil
diagonal:  Solving for rho, Initial residual = 0, Final residual = 0, No Iterations 0
DILUPBiCGStab:  Solving for Ux, Initial residual = 0.0210983, Final residual = 4.50854e-10, No Iterations 2
DILUPBiCGStab:  Solving for Uy, Initial residual = 0.0176969, Final residual = 7.32443e-10, No Iterations 2
DILUPBiCGStab:  Solving for Uz, Initial residual = 0.0211346, Final residual = 4.6035e-10, No Iterations 2
DILUPBiCGStab:  Solving for h, Initial residual = 0.000976269, Final residual = 2.70289e-10, No Iterations 1
Min/max T:299.746 498.876
GAMG:  Solving for p_rgh, Initial residual = 0.00864531, Final residual = 5.14167e-05, No Iterations 3
GAMG:  Solving for p_rgh, Initial residual = 0.00209995, Final residual = 8.46662e-08, No Iterations 10
diagonal:  Solving for rho, Initial residual = 0, Final residual = 0, No Iterations 0
time step continuity errors (oil): sum local = 4.63756e-08, global = 4.63753e-08, cumulative = 1.94497e-06

Solving for solid region sphere
DICPCG:  Solving for h, Initial residual = 0.14416, Final residual = 3.94341e-07, No Iterations 5
Min/max T:498.768 499.034
ExecutionTime = 5.32 s  ClockTime = 5 s

Region: oil Courant Number mean: 1.54795e-05 max: 0.00325246
Region: sphere Diffusion Number mean: 0.313073 max: 10.2481
deltaT = 0.0384615
Time = 1.61538


Solving for fluid region oil
diagonal:  Solving for rho, Initial residual = 0, Final residual = 0, No Iterations 0
DILUPBiCGStab:  Solving for Ux, Initial residual = 0.0211655, Final residual = 4.44693e-10, No Iterations 2
DILUPBiCGStab:  Solving for Uy, Initial residual = 0.0175775, Final residual = 7.3553e-10, No Iterations 2
DILUPBiCGStab:  Solving for Uz, Initial residual = 0.0212042, Final residual = 4.52806e-10, No Iterations 2
DILUPBiCGStab:  Solving for h, Initial residual = 0.000952138, Final residual = 2.64474e-10, No Iterations 1
Min/max T:299.741 498.85
GAMG:  Solving for p_rgh, Initial residual = 0.00853207, Final residual = 5.04704e-05, No Iterations 3
GAMG:  Solving for p_rgh, Initial residual = 0.00207521, Final residual = 8.08138e-08, No Iterations 10
diagonal:  Solving for rho, Initial residual = 0, Final residual = 0, No Iterations 0
time step continuity errors (oil): sum local = 4.63436e-08, global = 4.63433e-08, cumulative = 1.99131e-06

Solving for solid region sphere
DICPCG:  Solving for h, Initial residual = 0.144169, Final residual = 3.94398e-07, No Iterations 5
Min/max T:498.742 499.008
ExecutionTime = 5.39 s  ClockTime = 6 s

Region: oil Courant Number mean: 1.52625e-05 max: 0.00325984
Region: sphere Diffusion Number mean: 0.313078 max: 10.2483
deltaT = 0.0384615
Time = 1.65385


Solving for fluid region oil
diagonal:  Solving for rho, Initial residual = 0, Final residual = 0, No Iterations 0
DILUPBiCGStab:  Solving for Ux, Initial residual = 0.0212354, Final residual = 4.39038e-10, No Iterations 2
DILUPBiCGStab:  Solving for Uy, Initial residual = 0.0174684, Final residual = 7.39757e-10, No Iterations 2
DILUPBiCGStab:  Solving for Uz, Initial residual = 0.0212786, Final residual = 4.45823e-10, No Iterations 2
DILUPBiCGStab:  Solving for h, Initial residual = 0.000929154, Final residual = 2.58927e-10, No Iterations 1
Min/max T:299.735 498.824
GAMG:  Solving for p_rgh, Initial residual = 0.00842475, Final residual = 4.93045e-05, No Iterations 3
GAMG:  Solving for p_rgh, Initial residual = 0.00205075, Final residual = 7.99363e-08, No Iterations 10
diagonal:  Solving for rho, Initial residual = 0, Final residual = 0, No Iterations 0
time step continuity errors (oil): sum local = 4.63117e-08, global = 4.63114e-08, cumulative = 2.03762e-06

Solving for solid region sphere
DICPCG:  Solving for h, Initial residual = 0.144177, Final residual = 3.94455e-07, No Iterations 5
Min/max T:498.717 498.982
ExecutionTime = 5.49 s  ClockTime = 6 s

Region: oil Courant Number mean: 1.5051e-05 max: 0.00326714
Region: sphere Diffusion Number mean: 0.313084 max: 10.2485
deltaT = 0.0384615
Time = 1.69231


Solving for fluid region oil
diagonal:  Solving for rho, Initial residual = 0, Final residual = 0, No Iterations 0
DILUPBiCGStab:  Solving for Ux, Initial residual = 0.0213058, Final residual = 4.3346e-10, No Iterations 2
DILUPBiCGStab:  Solving for Uy, Initial residual = 0.0173657, Final residual = 7.44782e-10, No Iterations 2
DILUPBiCGStab:  Solving for Uz, Initial residual = 0.021352, Final residual = 4.38967e-10, No Iterations 2
[...]
Min/max T:298.957 493.892
GAMG:  Solving for p_rgh, Initial residual = 0.00173562, Final residual = 1.01235e-05, No Iterations 3
GAMG:  Solving for p_rgh, Initial residual = 0.000430649, Final residual = 5.11985e-08, No Iterations 8
diagonal:  Solving for rho, Initial residual = 0, Final residual = 0, No Iterations 0
time step continuity errors (oil): sum local = 4.09732e-08, global = 4.09725e-08, cumulative = 1.08591e-05

Solving for solid region sphere
DICPCG:  Solving for h, Initial residual = 0.145634, Final residual = 4.05083e-07, No Iterations 5
Min/max T:493.818 494.04
ExecutionTime = 23.36 s  ClockTime = 24 s

Region: oil Courant Number mean: 4.17269e-05 max: 0.00442232
Region: sphere Diffusion Number mean: 0.314157 max: 10.2835
deltaT = 0.0384615
Time = 9.5


Solving for fluid region oil
diagonal:  Solving for rho, Initial residual = 0, Final residual = 0, No Iterations 0
DILUPBiCGStab:  Solving for Ux, Initial residual = 0.00811467, Final residual = 3.91725e-08, No Iterations 2
DILUPBiCGStab:  Solving for Uy, Initial residual = 0.00371949, Final residual = 3.77839e-08, No Iterations 2
DILUPBiCGStab:  Solving for Uz, Initial residual = 0.0081094, Final residual = 3.8973e-08, No Iterations 2
DILUPBiCGStab:  Solving for h, Initial residual = 0.000152906, Final residual = 7.24729e-11, No Iterations 1
Min/max T:298.955 493.869
GAMG:  Solving for p_rgh, Initial residual = 0.00172872, Final residual = 1.00872e-05, No Iterations 3
GAMG:  Solving for p_rgh, Initial residual = 0.00042887, Final residual = 5.08717e-08, No Iterations 8
diagonal:  Solving for rho, Initial residual = 0, Final residual = 0, No Iterations 0
time step continuity errors (oil): sum local = 4.09517e-08, global = 4.0951e-08, cumulative = 1.09e-05

Solving for solid region sphere
DICPCG:  Solving for h, Initial residual = 0.145639, Final residual = 4.05128e-07, No Iterations 5
Min/max T:493.795 494.017
ExecutionTime = 23.58 s  ClockTime = 24 s

wallHeatFlux wallHeatFlux1 write:
    writing field wallHeatFlux
    min/max/integ(maxY) = 0, 0, 0
    min/max/integ(minX) = 0, 0, 0
    min/max/integ(maxX) = 0, 0, 0
    min/max/integ(minY) = 0, 0, 0
    min/max/integ(minZ) = 0, 0, 0
    min/max/integ(maxZ) = 0, 0, 0
    min/max/integ(oil_to_sphere) = 7749.37, 20774.9, 36.0632
Region: oil Courant Number mean: 4.19569e-05 max: 0.00442768
Region: sphere Diffusion Number mean: 0.314162 max: 10.2837
deltaT = 0.0384615
Time = 9.53846


Solving for fluid region oil
diagonal:  Solving for rho, Initial residual = 0, Final residual = 0, No Iterations 0
DILUPBiCGStab:  Solving for Ux, Initial residual = 0.00807516, Final residual = 3.90234e-08, No Iterations 2
DILUPBiCGStab:  Solving for Uy, Initial residual = 0.003702, Final residual = 3.76014e-08, No Iterations 2
DILUPBiCGStab:  Solving for Uz, Initial residual = 0.0080698, Final residual = 3.88244e-08, No Iterations 2
DILUPBiCGStab:  Solving for h, Initial residual = 0.000152274, Final residual = 7.23406e-11, No Iterations 1
Min/max T:298.953 493.846
GAMG:  Solving for p_rgh, Initial residual = 0.00172192, Final residual = 1.0053e-05, No Iterations 3
GAMG:  Solving for p_rgh, Initial residual = 0.000427107, Final residual = 5.41222e-08, No Iterations 8
diagonal:  Solving for rho, Initial residual = 0, Final residual = 0, No Iterations 0
time step continuity errors (oil): sum local = 4.09303e-08, global = 4.09295e-08, cumulative = 1.0941e-05

Solving for solid region sphere
DICPCG:  Solving for h, Initial residual = 0.145644, Final residual = 4.05173e-07, No Iterations 5
Min/max T:493.772 493.994
ExecutionTime = 23.65 s  ClockTime = 24 s

Region: oil Courant Number mean: 4.21871e-05 max: 0.00443303
Region: sphere Diffusion Number mean: 0.314167 max: 10.2839
deltaT = 0.0384615
Time = 9.57692


Solving for fluid region oil
diagonal:  Solving for rho, Initial residual = 0, Final residual = 0, No Iterations 0
DILUPBiCGStab:  Solving for Ux, Initial residual = 0.00803596, Final residual = 3.8875e-08, No Iterations 2
DILUPBiCGStab:  Solving for Uy, Initial residual = 0.00368466, Final residual = 3.74203e-08, No Iterations 2
DILUPBiCGStab:  Solving for Uz, Initial residual = 0.00803053, Final residual = 3.8677e-08, No Iterations 2
DILUPBiCGStab:  Solving for h, Initial residual = 0.000151647, Final residual = 7.22096e-11, No Iterations 1
Min/max T:298.951 493.823
GAMG:  Solving for p_rgh, Initial residual = 0.00171522, Final residual = 1.00208e-05, No Iterations 3
GAMG:  Solving for p_rgh, Initial residual = 0.000425362, Final residual = 5.31387e-08, No Iterations 8
diagonal:  Solving for rho, Initial residual = 0, Final residual = 0, No Iterations 0
time step continuity errors (oil): sum local = 4.09088e-08, global = 4.09081e-08, cumulative = 1.09819e-05

Solving for solid region sphere
DICPCG:  Solving for h, Initial residual = 0.145649, Final residual = 4.05217e-07, No Iterations 5
Min/max T:493.749 493.971
ExecutionTime = 23.73 s  ClockTime = 24 s

Region: oil Courant Number mean: 4.24175e-05 max: 0.00443838
Region: sphere Diffusion Number mean: 0.314172 max: 10.284
deltaT = 0.0384615
Time = 9.61538


Solving for fluid region oil
diagonal:  Solving for rho, Initial residual = 0, Final residual = 0, No Iterations 0
DILUPBiCGStab:  Solving for Ux, Initial residual = 0.00799709, Final residual = 3.87286e-08, No Iterations 2
DILUPBiCGStab:  Solving for Uy, Initial residual = 0.00366749, Final residual = 3.72409e-08, No Iterations 2
DILUPBiCGStab:  Solving for Uz, Initial residual = 0.00799163, Final residual = 3.85316e-08, No Iterations 2
DILUPBiCGStab:  Solving for h, Initial residual = 0.000151025, Final residual = 7.208e-11, No Iterations 1
Min/max T:298.949 493.8
GAMG:  Solving for p_rgh, Initial residual = 0.00170854, Final residual = 9.98154e-06, No Iterations 3
GAMG:  Solving for p_rgh, Initial residual = 0.000423627, Final residual = 5.01427e-08, No Iterations 8
diagonal:  Solving for rho, Initial residual = 0, Final residual = 0, No Iterations 0
time step continuity errors (oil): sum local = 4.08874e-08, global = 4.08867e-08, cumulative = 1.10228e-05

Solving for solid region sphere
DICPCG:  Solving for h, Initial residual = 0.145654, Final residual = 4.05262e-07, No Iterations 5
Min/max T:493.726 493.948
ExecutionTime = 23.81 s  ClockTime = 24 s

Region: oil Courant Number mean: 4.26482e-05 max: 0.00444372
Region: sphere Diffusion Number mean: 0.314177 max: 10.2842
deltaT = 0.0384615
Time = 9.65385


Solving for fluid region oil
diagonal:  Solving for rho, Initial residual = 0, Final residual = 0, No Iterations 0
DILUPBiCGStab:  Solving for Ux, Initial residual = 0.00795851, Final residual = 3.85831e-08, No Iterations 2
DILUPBiCGStab:  Solving for Uy, Initial residual = 0.00365048, Final residual = 3.7063e-08, No Iterations 2
DILUPBiCGStab:  Solving for Uz, Initial residual = 0.00795301, Final residual = 3.83867e-08, No Iterations 2
DILUPBiCGStab:  Solving for h, Initial residual = 0.000150409, Final residual = 7.19515e-11, No Iterations 1
Min/max T:298.947 493.777
GAMG:  Solving for p_rgh, Initial residual = 0.00170189, Final residual = 9.94843e-06, No Iterations 3
GAMG:  Solving for p_rgh, Initial residual = 0.000421908, Final residual = 5.19801e-08, No Iterations 8
diagonal:  Solving for rho, Initial residual = 0, Final residual = 0, No Iterations 0
time step continuity errors (oil): sum local = 4.08661e-08, global = 4.08654e-08, cumulative = 1.10636e-05

Solving for solid region sphere
DICPCG:  Solving for h, Initial residual = 0.145659, Final residual = 4.05306e-07, No Iterations 5
Min/max T:493.704 493.925
ExecutionTime = 23.89 s  ClockTime = 24 s

Region: oil Courant Number mean: 4.28792e-05 max: 0.00444906
Region: sphere Diffusion Number mean: 0.314182 max: 10.2844
deltaT = 0.0384615
Time = 9.69231


Solving for fluid region oil
diagonal:  Solving for rho, Initial residual = 0, Final residual = 0, No Iterations 0
DILUPBiCGStab:  Solving for Ux, Initial residual = 0.00792026, Final residual = 3.84391e-08, No Iterations 2
DILUPBiCGStab:  Solving for Uy, Initial residual = 0.00363362, Final residual = 3.68867e-08, No Iterations 2
DILUPBiCGStab:  Solving for Uz, Initial residual = 0.00791477, Final residual = 3.8244e-08, No Iterations 2
DILUPBiCGStab:  Solving for h, Initial residual = 0.000149797, Final residual = 7.18241e-11, No Iterations 1
Min/max T:298.945 493.754
GAMG:  Solving for p_rgh, Initial residual = 0.00169534, Final residual = 9.91607e-06, No Iterations 3
GAMG:  Solving for p_rgh, Initial residual = 0.000420213, Final residual = 5.27029e-08, No Iterations 8
diagonal:  Solving for rho, Initial residual = 0, Final residual = 0, No Iterations 0
time step continuity errors (oil): sum local = 4.08448e-08, global = 4.08441e-08, cumulative = 1.11045e-05

Solving for solid region sphere
DICPCG:  Solving for h, Initial residual = 0.145664, Final residual = 4.0535e-07, No Iterations 5
Min/max T:493.681 493.902
ExecutionTime = 23.97 s  ClockTime = 24 s

Region: oil Courant Number mean: 4.31104e-05 max: 0.0044544
Region: sphere Diffusion Number mean: 0.314187 max: 10.2845
deltaT = 0.0384615
Time = 9.73077


Solving for fluid region oil
diagonal:  Solving for rho, Initial residual = 0, Final residual = 0, No Iterations 0
DILUPBiCGStab:  Solving for Ux, Initial residual = 0.00788233, Final residual = 3.82966e-08, No Iterations 2
DILUPBiCGStab:  Solving for Uy, Initial residual = 0.0036169, Final residual = 3.67117e-08, No Iterations 2
DILUPBiCGStab:  Solving for Uz, Initial residual = 0.00787682, Final residual = 3.81019e-08, No Iterations 2
DILUPBiCGStab:  Solving for h, Initial residual = 0.00014919, Final residual = 7.16981e-11, No Iterations 1
Min/max T:298.943 493.731
GAMG:  Solving for p_rgh, Initial residual = 0.00168874, Final residual = 9.88358e-06, No Iterations 3
GAMG:  Solving for p_rgh, Initial residual = 0.000418532, Final residual = 5.06213e-08, No Iterations 8
diagonal:  Solving for rho, Initial residual = 0, Final residual = 0, No Iterations 0
time step continuity errors (oil): sum local = 4.08236e-08, global = 4.08229e-08, cumulative = 1.11453e-05

Solving for solid region sphere
DICPCG:  Solving for h, Initial residual = 0.145668, Final residual = 4.05394e-07, No Iterations 5
Min/max T:493.658 493.879
ExecutionTime = 24.05 s  ClockTime = 24 s

Region: oil Courant Number mean: 4.33419e-05 max: 0.00445973
Region: sphere Diffusion Number mean: 0.314192 max: 10.2847
deltaT = 0.0384615
Time = 9.76923


Solving for fluid region oil
diagonal:  Solving for rho, Initial residual = 0, Final residual = 0, No Iterations 0
DILUPBiCGStab:  Solving for Ux, Initial residual = 0.00784472, Final residual = 3.81557e-08, No Iterations 2
DILUPBiCGStab:  Solving for Uy, Initial residual = 0.00360034, Final residual = 3.65384e-08, No Iterations 2
DILUPBiCGStab:  Solving for Uz, Initial residual = 0.00783922, Final residual = 3.79624e-08, No Iterations 2
DILUPBiCGStab:  Solving for h, Initial residual = 0.000148588, Final residual = 7.15738e-11, No Iterations 1
Min/max T:298.941 493.709
GAMG:  Solving for p_rgh, Initial residual = 0.00168212, Final residual = 9.8461e-06, No Iterations 3
GAMG:  Solving for p_rgh, Initial residual = 0.000416848, Final residual = 5.2942e-08, No Iterations 8
diagonal:  Solving for rho, Initial residual = 0, Final residual = 0, No Iterations 0
time step continuity errors (oil): sum local = 4.08024e-08, global = 4.08017e-08, cumulative = 1.11861e-05

Solving for solid region sphere
DICPCG:  Solving for h, Initial residual = 0.145673, Final residual = 4.05438e-07, No Iterations 5
Min/max T:493.635 493.857
ExecutionTime = 24.12 s  ClockTime = 24 s

Region: oil Courant Number mean: 4.35736e-05 max: 0.00446506
Region: sphere Diffusion Number mean: 0.314197 max: 10.2849
deltaT = 0.0384615
Time = 9.80769


Solving for fluid region oil
diagonal:  Solving for rho, Initial residual = 0, Final residual = 0, No Iterations 0
DILUPBiCGStab:  Solving for Ux, Initial residual = 0.00780739, Final residual = 3.80153e-08, No Iterations 2
DILUPBiCGStab:  Solving for Uy, Initial residual = 0.00358392, Final residual = 3.63664e-08, No Iterations 2
DILUPBiCGStab:  Solving for Uz, Initial residual = 0.00780185, Final residual = 3.78229e-08, No Iterations 2
DILUPBiCGStab:  Solving for h, Initial residual = 0.000147991, Final residual = 7.14512e-11, No Iterations 1
Min/max T:298.939 493.686
GAMG:  Solving for p_rgh, Initial residual = 0.00167558, Final residual = 9.81776e-06, No Iterations 3
GAMG:  Solving for p_rgh, Initial residual = 0.000415196, Final residual = 5.33261e-08, No Iterations 8
diagonal:  Solving for rho, Initial residual = 0, Final residual = 0, No Iterations 0
time step continuity errors (oil): sum local = 4.07812e-08, global = 4.07805e-08, cumulative = 1.12269e-05

Solving for solid region sphere
DICPCG:  Solving for h, Initial residual = 0.145678, Final residual = 4.05482e-07, No Iterations 5
Min/max T:493.613 493.834
ExecutionTime = 24.2 s  ClockTime = 24 s

Region: oil Courant Number mean: 4.38055e-05 max: 0.00447039
Region: sphere Diffusion Number mean: 0.314202 max: 10.285
deltaT = 0.0384615
Time = 9.84615


Solving for fluid region oil
diagonal:  Solving for rho, Initial residual = 0, Final residual = 0, No Iterations 0
DILUPBiCGStab:  Solving for Ux, Initial residual = 0.00777038, Final residual = 3.78764e-08, No Iterations 2
DILUPBiCGStab:  Solving for Uy, Initial residual = 0.00356765, Final residual = 3.61959e-08, No Iterations 2
DILUPBiCGStab:  Solving for Uz, Initial residual = 0.0077648, Final residual = 3.7685e-08, No Iterations 2
DILUPBiCGStab:  Solving for h, Initial residual = 0.000147398, Final residual = 7.13298e-11, No Iterations 1
Min/max T:298.937 493.663
GAMG:  Solving for p_rgh, Initial residual = 0.00166904, Final residual = 9.78318e-06, No Iterations 3
GAMG:  Solving for p_rgh, Initial residual = 0.000413551, Final residual = 5.10223e-08, No Iterations 8
diagonal:  Solving for rho, Initial residual = 0, Final residual = 0, No Iterations 0
time step continuity errors (oil): sum local = 4.07601e-08, global = 4.07594e-08, cumulative = 1.12676e-05

Solving for solid region sphere
DICPCG:  Solving for h, Initial residual = 0.145682, Final residual = 4.05525e-07, No Iterations 5
Min/max T:493.59 493.811
ExecutionTime = 24.28 s  ClockTime = 24 s

Region: oil Courant Number mean: 4.40377e-05 max: 0.00447571
Region: sphere Diffusion Number mean: 0.314207 max: 10.2852
deltaT = 0.0384615
Time = 9.88462


Solving for fluid region oil
diagonal:  Solving for rho, Initial residual = 0, Final residual = 0, No Iterations 0
DILUPBiCGStab:  Solving for Ux, Initial residual = 0.00773365, Final residual = 3.77379e-08, No Iterations 2
DILUPBiCGStab:  Solving for Uy, Initial residual = 0.00355151, Final residual = 3.60267e-08, No Iterations 2
DILUPBiCGStab:  Solving for Uz, Initial residual = 0.007728, Final residual = 3.75472e-08, No Iterations 2
DILUPBiCGStab:  Solving for h, Initial residual = 0.000146811, Final residual = 7.12093e-11, No Iterations 1
Min/max T:298.935 493.64
GAMG:  Solving for p_rgh, Initial residual = 0.00166265, Final residual = 9.74993e-06, No Iterations 3
GAMG:  Solving for p_rgh, Initial residual = 0.000411923, Final residual = 9.92362e-08, No Iterations 7
diagonal:  Solving for rho, Initial residual = 0, Final residual = 0, No Iterations 0
time step continuity errors (oil): sum local = 4.07396e-08, global = 4.07383e-08, cumulative = 1.13084e-05

Solving for solid region sphere
DICPCG:  Solving for h, Initial residual = 0.145687, Final residual = 4.05569e-07, No Iterations 5
Min/max T:493.567 493.788
ExecutionTime = 24.36 s  ClockTime = 25 s

Region: oil Courant Number mean: 4.42701e-05 max: 0.00448103
Region: sphere Diffusion Number mean: 0.314212 max: 10.2853
deltaT = 0.0384615
Time = 9.92308


Solving for fluid region oil
diagonal:  Solving for rho, Initial residual = 0, Final residual = 0, No Iterations 0
DILUPBiCGStab:  Solving for Ux, Initial residual = 0.00769724, Final residual = 3.76009e-08, No Iterations 2
DILUPBiCGStab:  Solving for Uy, Initial residual = 0.00353552, Final residual = 3.58589e-08, No Iterations 2
DILUPBiCGStab:  Solving for Uz, Initial residual = 0.00769154, Final residual = 3.74113e-08, No Iterations 2
DILUPBiCGStab:  Solving for h, Initial residual = 0.000146228, Final residual = 7.10899e-11, No Iterations 1
Min/max T:298.933 493.617
GAMG:  Solving for p_rgh, Initial residual = 0.00165627, Final residual = 9.75521e-06, No Iterations 3
GAMG:  Solving for p_rgh, Initial residual = 0.000410343, Final residual = 4.98517e-08, No Iterations 8
diagonal:  Solving for rho, Initial residual = 0, Final residual = 0, No Iterations 0
time step continuity errors (oil): sum local = 4.07179e-08, global = 4.07172e-08, cumulative = 1.13491e-05

Solving for solid region sphere
DICPCG:  Solving for h, Initial residual = 0.145691, Final residual = 4.05611e-07, No Iterations 5
Min/max T:493.544 493.765
ExecutionTime = 24.42 s  ClockTime = 25 s

Region: oil Courant Number mean: 4.45028e-05 max: 0.00448635
Region: sphere Diffusion Number mean: 0.314216 max: 10.2855
deltaT = 0.0384615
Time = 9.96154


Solving for fluid region oil
diagonal:  Solving for rho, Initial residual = 0, Final residual = 0, No Iterations 0
DILUPBiCGStab:  Solving for Ux, Initial residual = 0.00766114, Final residual = 3.74658e-08, No Iterations 2
DILUPBiCGStab:  Solving for Uy, Initial residual = 0.00351968, Final residual = 3.56927e-08, No Iterations 2
DILUPBiCGStab:  Solving for Uz, Initial residual = 0.00765535, Final residual = 3.7277e-08, No Iterations 2
DILUPBiCGStab:  Solving for h, Initial residual = 0.000145649, Final residual = 7.09718e-11, No Iterations 1
Min/max T:298.932 493.594
GAMG:  Solving for p_rgh, Initial residual = 0.00164984, Final residual = 9.65821e-06, No Iterations 3
GAMG:  Solving for p_rgh, Initial residual = 0.000408679, Final residual = 9.66357e-08, No Iterations 7
diagonal:  Solving for rho, Initial residual = 0, Final residual = 0, No Iterations 0
time step continuity errors (oil): sum local = 4.06976e-08, global = 4.06962e-08, cumulative = 1.13898e-05

Solving for solid region sphere
DICPCG:  Solving for h, Initial residual = 0.145695, Final residual = 4.05654e-07, No Iterations 5
Min/max T:493.522 493.742
ExecutionTime = 24.5 s  ClockTime = 25 s

Region: oil Courant Number mean: 4.47358e-05 max: 0.00449166
Region: sphere Diffusion Number mean: 0.314221 max: 10.2857
deltaT = 0.0384615
Time = 10


Solving for fluid region oil
diagonal:  Solving for rho, Initial residual = 0, Final residual = 0, No Iterations 0
DILUPBiCGStab:  Solving for Ux, Initial residual = 0.00762534, Final residual = 3.73322e-08, No Iterations 2
DILUPBiCGStab:  Solving for Uy, Initial residual = 0.00350395, Final residual = 3.55276e-08, No Iterations 2
DILUPBiCGStab:  Solving for Uz, Initial residual = 0.00761952, Final residual = 3.71446e-08, No Iterations 2
DILUPBiCGStab:  Solving for h, Initial residual = 0.000145075, Final residual = 7.0855e-11, No Iterations 1
Min/max T:298.93 493.572
GAMG:  Solving for p_rgh, Initial residual = 0.00164359, Final residual = 9.70568e-06, No Iterations 3
GAMG:  Solving for p_rgh, Initial residual = 0.000407167, Final residual = 5.09981e-08, No Iterations 8
diagonal:  Solving for rho, Initial residual = 0, Final residual = 0, No Iterations 0
time step continuity errors (oil): sum local = 4.0676e-08, global = 4.06753e-08, cumulative = 1.14305e-05

Solving for solid region sphere
DICPCG:  Solving for h, Initial residual = 0.145699, Final residual = 4.05696e-07, No Iterations 5
Min/max T:493.499 493.719
ExecutionTime = 24.67 s  ClockTime = 25 s

wallHeatFlux wallHeatFlux1 write:
    writing field wallHeatFlux
    min/max/integ(maxY) = 0, 0, 0
    min/max/integ(minX) = 0, 0, 0
    min/max/integ(maxX) = 0, 0, 0
    min/max/integ(minY) = 0, 0, 0
    min/max/integ(minZ) = 0, 0, 0
    min/max/integ(maxZ) = 0, 0, 0
    min/max/integ(oil_to_sphere) = 7730.53, 20563.2, 35.8082
End

