/*---------------------------------------------------------------------------*\
| =========                 |                                                 |
| \\      /  F ield         | OpenFOAM: The Open Source CFD Toolbox           |
|  \\    /   O peration     | Version:  v1906                                 |
|   \\  /    A nd           | Web:      www.OpenFOAM.com                      |
|    \\/     M anipulation  |                                                 |
\*---------------------------------------------------------------------------*/
Build  : v1906 OPENFOAM=1906
Arch   : "LSB;label=32;scalar=64"
Exec   : buoyantPimpleFoam
Date   : Oct 24 2019
Time   : 14:50:24
Host   : DESKTOP-9S60IA4
PID    : 2598
I/O    : uncollated
Case   : /home/theodore_ong/GitHub_software/OpenFoam_heatTrf_YouTube/buoyantPimpleFoam_timevaryingBC/heatfluxtimevary
nProcs : 1
trapFpe: Floating point exception trapping enabled (FOAM_SIGFPE).
fileModificationChecking : Monitoring run-time modified files using timeStampMaster (fileModificationSkew 10)
allowSystemOperations : Allowing user-supplied system call operations

// * * * * * * * * * * * * * * * * * * * * * * * * * * * * * * * * * * * * * //
Create time

Create mesh for time = 0


PIMPLE: Operating solver in PISO mode

Reading thermophysical properties

Selecting thermodynamics package 
{
    type            heRhoThermo;
    mixture         pureMixture;
    transport       const;
    thermo          hConst;
    equationOfState perfectGas;
    specie          specie;
    energy          sensibleEnthalpy;
}

Reading field U

Reading/calculating face flux field phi

Creating turbulence model

Selecting turbulence model type RAS
Selecting RAS turbulence model kOmegaSST
Selecting patchDistMethod meshWave
RAS
{
    RASModel        kOmegaSST;
    turbulence      on;
    printCoeffs     on;
    alphaK1         0.85;
    alphaK2         1;
    alphaOmega1     0.5;
    alphaOmega2     0.856;
    gamma1          0.555556;
    gamma2          0.44;
    beta1           0.075;
    beta2           0.0828;
    betaStar        0.09;
    a1              0.31;
    b1              1;
    c1              10;
    F3              false;
    decayControl    false;
    kInf            0;
    omegaInf        0;
}


Reading g

Reading hRef
Calculating field g.h

Reading field p_rgh

Creating field dpdt

Creating field kinetic energy K

No MRF models present

Radiation model not active: radiationProperties not found
Selecting radiationModel none
No finite volume options present
Courant Number mean: 0 max: 0

Starting time loop

Courant Number mean: 0 max: 0
deltaT = 0.0120482
Time = 0.0120482

diagonal:  Solving for rho, Initial residual = 0, Final residual = 0, No Iterations 0
PIMPLE: iteration 1
DILUPBiCGStab:  Solving for h, Initial residual = 1, Final residual = 3.21088e-09, No Iterations 5
DICPCG:  Solving for p_rgh, Initial residual = 0.371549, Final residual = 0.00328102, No Iterations 153
diagonal:  Solving for rho, Initial residual = 0, Final residual = 0, No Iterations 0
time step continuity errors : sum local = 4.26871e-05, global = 5.44741e-13, cumulative = 5.44741e-13
DICPCG:  Solving for p_rgh, Initial residual = 0.0731771, Final residual = 9.92177e-08, No Iterations 258
diagonal:  Solving for rho, Initial residual = 0, Final residual = 0, No Iterations 0
time step continuity errors : sum local = 6.78398e-05, global = 5.47541e-13, cumulative = 1.09228e-12
DILUPBiCGStab:  Solving for omega, Initial residual = 0.194603, Final residual = 1.35644e-09, No Iterations 3
DILUPBiCGStab:  Solving for k, Initial residual = 1, Final residual = 6.58473e-09, No Iterations 4
ExecutionTime = 2.03 s  ClockTime = 4 s

Courant Number mean: 0.00637204 max: 2.23809
deltaT = 0.00269197
Time = 0.0147402

diagonal:  Solving for rho, Initial residual = 0, Final residual = 0, No Iterations 0
PIMPLE: iteration 1
DILUPBiCGStab:  Solving for h, Initial residual = 0.103846, Final residual = 5.32337e-11, No Iterations 2
DICPCG:  Solving for p_rgh, Initial residual = 0.403616, Final residual = 0.00378157, No Iterations 66
diagonal:  Solving for rho, Initial residual = 0, Final residual = 0, No Iterations 0
time step continuity errors : sum local = 4.11435e-05, global = 1.64395e-15, cumulative = 1.09393e-12
DICPCG:  Solving for p_rgh, Initial residual = 0.0261317, Final residual = 9.62071e-08, No Iterations 251
diagonal:  Solving for rho, Initial residual = 0, Final residual = 0, No Iterations 0
time step continuity errors : sum local = 3.47688e-05, global = 2.93331e-15, cumulative = 1.09686e-12
DILUPBiCGStab:  Solving for omega, Initial residual = 0.0170571, Final residual = 7.0754e-12, No Iterations 1
DILUPBiCGStab:  Solving for k, Initial residual = 0.0965659, Final residual = 1.68313e-11, No Iterations 3
bounding k, min: -0.00123449 max: 0.00495804 average: 0.000330859
ExecutionTime = 3.09 s  ClockTime = 5 s

Courant Number mean: 0.00242438 max: 1.18411
deltaT = 0.0011364
Time = 0.0158766

diagonal:  Solving for rho, Initial residual = 0, Final residual = 0, No Iterations 0
PIMPLE: iteration 1
DILUPBiCGStab:  Solving for h, Initial residual = 0.038079, Final residual = 6.59344e-09, No Iterations 1
DICPCG:  Solving for p_rgh, Initial residual = 0.156888, Final residual = 0.00152286, No Iterations 78
diagonal:  Solving for rho, Initial residual = 0, Final residual = 0, No Iterations 0
time step continuity errors : sum local = 1.64885e-05, global = -9.41976e-15, cumulative = 1.08744e-12
DICPCG:  Solving for p_rgh, Initial residual = 0.0433809, Final residual = 9.93522e-08, No Iterations 203
diagonal:  Solving for rho, Initial residual = 0, Final residual = 0, No Iterations 0
time step continuity errors : sum local = 1.47425e-05, global = -1.22645e-14, cumulative = 1.07518e-12
DILUPBiCGStab:  Solving for omega, Initial residual = 0.00635195, Final residual = 1.2106e-13, No Iterations 1
DILUPBiCGStab:  Solving for k, Initial residual = 0.0323745, Final residual = 7.71595e-10, No Iterations 2
bounding k, min: -0.000652529 max: 0.00953145 average: 0.00032813
ExecutionTime = 4.12 s  ClockTime = 6 s

Courant Number mean: 0.00106956 max: 0.506905
deltaT = 0.00112087
Time = 0.0169974

diagonal:  Solving for rho, Initial residual = 0, Final residual = 0, No Iterations 0
PIMPLE: iteration 1
DILUPBiCGStab:  Solving for h, Initial residual = 0.0347965, Final residual = 4.95856e-09, No Iterations 1
DICPCG:  Solving for p_rgh, Initial residual = 0.129367, Final residual = 0.00125553, No Iterations 85
diagonal:  Solving for rho, Initial residual = 0, Final residual = 0, No Iterations 0
time step continuity errors : sum local = 1.42847e-05, global = 9.80093e-15, cumulative = 1.08498e-12
DICPCG:  Solving for p_rgh, Initial residual = 0.0332395, Final residual = 8.8271e-08, No Iterations 201
diagonal:  Solving for rho, Initial residual = 0, Final residual = 0, No Iterations 0
time step continuity errors : sum local = 1.27456e-05, global = -3.52264e-15, cumulative = 1.08145e-12
DILUPBiCGStab:  Solving for omega, Initial residual = 0.00588366, Final residual = 9.5885e-09, No Iterations 1
DILUPBiCGStab:  Solving for k, Initial residual = 0.028518, Final residual = 3.4271e-10, No Iterations 2
bounding k, min: -0.000853149 max: 0.0165107 average: 0.000325615
ExecutionTime = 5.07 s  ClockTime = 7 s

Courant Number mean: 0.000984218 max: 0.440584
deltaT = 0.00124747
Time = 0.0182449

diagonal:  Solving for rho, Initial residual = 0, Final residual = 0, No Iterations 0
PIMPLE: iteration 1
DILUPBiCGStab:  Solving for h, Initial residual = 0.0356478, Final residual = 4.19612e-09, No Iterations 1
DICPCG:  Solving for p_rgh, Initial residual = 0.106514, Final residual = 0.00103608, No Iterations 99
diagonal:  Solving for rho, Initial residual = 0, Final residual = 0, No Iterations 0
time step continuity errors : sum local = 1.2228e-05, global = 8.95305e-15, cumulative = 1.09041e-12
DICPCG:  Solving for p_rgh, Initial residual = 0.0185106, Final residual = 8.60319e-08, No Iterations 203
diagonal:  Solving for rho, Initial residual = 0, Final residual = 0, No Iterations 0
time step continuity errors : sum local = 1.08352e-05, global = -1.42001e-15, cumulative = 1.08899e-12
DILUPBiCGStab:  Solving for omega, Initial residual = 0.00614798, Final residual = 1.53937e-13, No Iterations 1
DILUPBiCGStab:  Solving for k, Initial residual = 0.0285591, Final residual = 1.22273e-10, No Iterations 2
bounding k, min: -0.000533604 max: 0.0259149 average: 0.000323009
ExecutionTime = 6.7 s  ClockTime = 8 s

Courant Number mean: 0.000888163 max: 0.376293
deltaT = 0.0014126
Time = 0.0196575

diagonal:  Solving for rho, Initial residual = 0, Final residual = 0, No Iterations 0
PIMPLE: iteration 1
DILUPBiCGStab:  Solving for h, Initial residual = 0.0369291, Final residual = 2.16855e-09, No Iterations 1
DICPCG:  Solving for p_rgh, Initial residual = 0.0887355, Final residual = 0.00085816, No Iterations 101
diagonal:  Solving for rho, Initial residual = 0, Final residual = 0, No Iterations 0
time step continuity errors : sum local = 8.78271e-06, global = 4.01179e-15, cumulative = 1.093e-12
DICPCG:  Solving for p_rgh, Initial residual = 0.00879327, Final residual = 9.42938e-08, No Iterations 203
diagonal:  Solving for rho, Initial residual = 0, Final residual = 0, No Iterations 0
time step continuity errors : sum local = 7.679e-06, global = 4.25317e-15, cumulative = 1.09725e-12
DILUPBiCGStab:  Solving for omega, Initial residual = 0.00650301, Final residual = 8.75191e-09, No Iterations 1
DILUPBiCGStab:  Solving for k, Initial residual = 0.0286954, Final residual = 2.43992e-09, No Iterations 1
ExecutionTime = 8.53 s  ClockTime = 10 s

Courant Number mean: 0.000647199 max: 0.268658
deltaT = 0.0016758
Time = 0.0213333

diagonal:  Solving for rho, Initial residual = 0, Final residual = 0, No Iterations 0
PIMPLE: iteration 1
DILUPBiCGStab:  Solving for h, Initial residual = 0.0398077, Final residual = 1.03582e-09, No Iterations 1
DICPCG:  Solving for p_rgh, Initial residual = 0.0827768, Final residual = 0.000782964, No Iterations 88
diagonal:  Solving for rho, Initial residual = 0, Final residual = 0, No Iterations 0
time step continuity errors : sum local = 4.24235e-06, global = 6.64693e-15, cumulative = 1.1039e-12
DICPCG:  Solving for p_rgh, Initial residual = 0.00271073, Final residual = 9.73965e-08, No Iterations 196
diagonal:  Solving for rho, Initial residual = 0, Final residual = 0, No Iterations 0
time step continuity errors : sum local = 3.38248e-06, global = 9.57675e-15, cumulative = 1.11348e-12
DILUPBiCGStab:  Solving for omega, Initial residual = 0.00714774, Final residual = 8.35331e-09, No Iterations 1
DILUPBiCGStab:  Solving for k, Initial residual = 0.0290783, Final residual = 9.50673e-11, No Iterations 1
bounding k, min: -0.000135345 max: 0.038098 average: 0.000317006
ExecutionTime = 9.45 s  ClockTime = 11 s

Courant Number mean: 0.000271823 max: 0.121844
deltaT = 0.00200958
Time = 0.0233429

diagonal:  Solving for rho, Initial residual = 0, Final residual = 0, No Iterations 0
PIMPLE: iteration 1
DILUPBiCGStab:  Solving for h, Initial residual = 0.0429657, Final residual = 1.54606e-09, No Iterations 1
DICPCG:  Solving for p_rgh, Initial residual = 0.0816472, Final residual = 0.000797494, No Iterations 125
diagonal:  Solving for rho, Initial residual = 0, Final residual = 0, No Iterations 0
time step continuity errors : sum local = 2.95012e-06, global = -6.02149e-15, cumulative = 1.10745e-12
DICPCG:  Solving for p_rgh, Initial residual = 0.00137451, Final residual = 9.14991e-08, No Iterations 206
diagonal:  Solving for rho, Initial residual = 0, Final residual = 0, No Iterations 0
time step continuity errors : sum local = 1.61784e-06, global = -1.25579e-14, cumulative = 1.0949e-12
DILUPBiCGStab:  Solving for omega, Initial residual = 0.00785296, Final residual = 1.2452e-12, No Iterations 1
DILUPBiCGStab:  Solving for k, Initial residual = 0.0300265, Final residual = 1.28318e-10, No Iterations 1
ExecutionTime = 10.45 s  ClockTime = 12 s

Courant Number mean: 0.00053491 max: 0.0572023
deltaT = 0.0024115
Time = 0.0257544

diagonal:  Solving for rho, Initial residual = 0, Final residual = 0, No Iterations 0
PIMPLE: iteration 1
DILUPBiCGStab:  Solving for h, Initial residual = 0.0459684, Final residual = 2.81179e-09, No Iterations 1
DICPCG:  Solving for p_rgh, Initial residual = 0.0811462, Final residual = 0.000802041, No Iterations 119
diagonal:  Solving for rho, Initial residual = 0, Final residual = 0, No Iterations 0
time step continuity errors : sum local = 8.14327e-06, global = 1.80798e-14, cumulative = 1.11298e-12
DICPCG:  Solving for p_rgh, Initial residual = 0.00194879, Final residual = 9.60948e-08, No Iterations 216
diagonal:  Solving for rho, Initial residual = 0, Final residual = 0, No Iterations 0
time step continuity errors : sum local = 6.17757e-06, global = 4.55254e-15, cumulative = 1.11753e-12
DILUPBiCGStab:  Solving for omega, Initial residual = 0.00852277, Final residual = 2.69385e-12, No Iterations 1
DILUPBiCGStab:  Solving for k, Initial residual = 0.0310697, Final residual = 6.03817e-10, No Iterations 1
ExecutionTime = 11.48 s  ClockTime = 13 s

Courant Number mean: 0.000847006 max: 0.21785
deltaT = 0.00289094
Time = 0.0286453

diagonal:  Solving for rho, Initial residual = 0, Final residual = 0, No Iterations 0
PIMPLE: iteration 1
DILUPBiCGStab:  Solving for h, Initial residual = 0.0486381, Final residual = 7.31993e-09, No Iterations 1
DICPCG:  Solving for p_rgh, Initial residual = 0.0796585, Final residual = 0.000686406, No Iterations 109
diagonal:  Solving for rho, Initial residual = 0, Final residual = 0, No Iterations 0
time step continuity errors : sum local = 9.95366e-06, global = -1.16056e-14, cumulative = 1.10592e-12
DICPCG:  Solving for p_rgh, Initial residual = 0.00141538, Final residual = 9.47276e-08, No Iterations 217
diagonal:  Solving for rho, Initial residual = 0, Final residual = 0, No Iterations 0
time step continuity errors : sum local = 6.63162e-06, global = -2.94771e-15, cumulative = 1.10298e-12
DILUPBiCGStab:  Solving for omega, Initial residual = 0.0091105, Final residual = 6.01661e-12, No Iterations 1
DILUPBiCGStab:  Solving for k, Initial residual = 0.0308759, Final residual = 8.80363e-10, No Iterations 1
ExecutionTime = 12.6 s  ClockTime = 14 s

Courant Number mean: 0.000738719 max: 0.239455
deltaT = 0.00346912
Time = 0.0321144

diagonal:  Solving for rho, Initial residual = 0, Final residual = 0, No Iterations 0
PIMPLE: iteration 1
DILUPBiCGStab:  Solving for h, Initial residual = 0.0510195, Final residual = 1.83683e-11, No Iterations 2
DICPCG:  Solving for p_rgh, Initial residual = 0.075453, Final residual = 0.000685254, No Iterations 104
diagonal:  Solving for rho, Initial residual = 0, Final residual = 0, No Iterations 0
time step continuity errors : sum local = 9.0852e-06, global = 1.67962e-16, cumulative = 1.10314e-12
DICPCG:  Solving for p_rgh, Initial residual = 0.000879653, Final residual = 9.48906e-08, No Iterations 216
diagonal:  Solving for rho, Initial residual = 0, Final residual = 0, No Iterations 0
time step continuity errors : sum local = 2.68543e-06, global = 2.71051e-15, cumulative = 1.10585e-12
DILUPBiCGStab:  Solving for omega, Initial residual = 0.00959907, Final residual = 1.3271e-11, No Iterations 1
DILUPBiCGStab:  Solving for k, Initial residual = 0.0295108, Final residual = 1.20962e-09, No Iterations 1
ExecutionTime = 13.73 s  ClockTime = 15 s

Courant Number mean: 0.000419219 max: 0.0740211
deltaT = 0.00415402
Time = 0.0362684

diagonal:  Solving for rho, Initial residual = 0, Final residual = 0, No Iterations 0
PIMPLE: iteration 1
DILUPBiCGStab:  Solving for h, Initial residual = 0.0528399, Final residual = 5.83591e-11, No Iterations 2
DICPCG:  Solving for p_rgh, Initial residual = 0.0707804, Final residual = 0.000649993, No Iterations 141
diagonal:  Solving for rho, Initial residual = 0, Final residual = 0, No Iterations 0
time step continuity errors : sum local = 2.91733e-05, global = -7.86187e-16, cumulative = 1.10507e-12
DICPCG:  Solving for p_rgh, Initial residual = 0.00166087, Final residual = 9.73164e-08, No Iterations 236
diagonal:  Solving for rho, Initial residual = 0, Final residual = 0, No Iterations 0
time step continuity errors : sum local = 2.05517e-05, global = -1.57201e-15, cumulative = 1.1035e-12
DILUPBiCGStab:  Solving for omega, Initial residual = 0.00992835, Final residual = 2.52743e-11, No Iterations 1
DILUPBiCGStab:  Solving for k, Initial residual = 0.0303167, Final residual = 9.07317e-09, No Iterations 2
bounding k, min: -0.000523097 max: 0.0317638 average: 0.000296898
ExecutionTime = 15.06 s  ClockTime = 17 s

Courant Number mean: 0.00141577 max: 0.688926
deltaT = 0.00301166
Time = 0.0392801

diagonal:  Solving for rho, Initial residual = 0, Final residual = 0, No Iterations 0
PIMPLE: iteration 1
DILUPBiCGStab:  Solving for h, Initial residual = 0.0334309, Final residual = 5.73393e-11, No Iterations 2
DICPCG:  Solving for p_rgh, Initial residual = 0.0445297, Final residual = 0.000432892, No Iterations 144
diagonal:  Solving for rho, Initial residual = 0, Final residual = 0, No Iterations 0
time step continuity errors : sum local = 2.46298e-05, global = 1.31116e-14, cumulative = 1.11661e-12
DICPCG:  Solving for p_rgh, Initial residual = 0.00236918, Final residual = 9.71752e-08, No Iterations 229
diagonal:  Solving for rho, Initial residual = 0, Final residual = 0, No Iterations 0
time step continuity errors : sum local = 2.01858e-05, global = -2.48377e-15, cumulative = 1.11412e-12
DILUPBiCGStab:  Solving for omega, Initial residual = 0.0064616, Final residual = 5.62724e-12, No Iterations 1
DILUPBiCGStab:  Solving for k, Initial residual = 0.0206125, Final residual = 1.09354e-10, No Iterations 2
bounding k, min: -0.0114812 max: 0.059069 average: 0.000294139
ExecutionTime = 16.18 s  ClockTime = 18 s

Courant Number mean: 0.00129463 max: 0.690382
deltaT = 0.00218345
Time = 0.0414636

diagonal:  Solving for rho, Initial residual = 0, Final residual = 0, No Iterations 0
PIMPLE: iteration 1
DILUPBiCGStab:  Solving for h, Initial residual = 0.0221296, Final residual = 6.58e-09, No Iterations 1
DICPCG:  Solving for p_rgh, Initial residual = 0.0301114, Final residual = 0.000298209, No Iterations 138
diagonal:  Solving for rho, Initial residual = 0, Final residual = 0, No Iterations 0
time step continuity errors : sum local = 1.70679e-05, global = 1.24427e-14, cumulative = 1.12657e-12
DICPCG:  Solving for p_rgh, Initial residual = 0.00275595, Final residual = 9.54935e-08, No Iterations 217
diagonal:  Solving for rho, Initial residual = 0, Final residual = 0, No Iterations 0
time step continuity errors : sum local = 1.46302e-05, global = 8.78244e-15, cumulative = 1.13535e-12
DILUPBiCGStab:  Solving for omega, Initial residual = 0.00436873, Final residual = 1.24158e-12, No Iterations 1
DILUPBiCGStab:  Solving for k, Initial residual = 0.0155482, Final residual = 9.70635e-10, No Iterations 2
bounding k, min: -0.00296804 max: 0.0939806 average: 0.00029272
ExecutionTime = 17.32 s  ClockTime = 19 s

Courant Number mean: 0.00095052 max: 0.504304
deltaT = 0.00216374
Time = 0.0436273

diagonal:  Solving for rho, Initial residual = 0, Final residual = 0, No Iterations 0
PIMPLE: iteration 1
DILUPBiCGStab:  Solving for h, Initial residual = 0.0204974, Final residual = 5.41905e-09, No Iterations 1
DICPCG:  Solving for p_rgh, Initial residual = 0.0273554, Final residual = 0.00026172, No Iterations 137
diagonal:  Solving for rho, Initial residual = 0, Final residual = 0, No Iterations 0
time step continuity errors : sum local = 1.49271e-05, global = -7.70795e-15, cumulative = 1.12764e-12
DICPCG:  Solving for p_rgh, Initial residual = 0.00227744, Final residual = 8.91312e-08, No Iterations 216
diagonal:  Solving for rho, Initial residual = 0, Final residual = 0, No Iterations 0
time step continuity errors : sum local = 1.27146e-05, global = 4.79011e-15, cumulative = 1.13243e-12
DILUPBiCGStab:  Solving for omega, Initial residual = 0.00405781, Final residual = 1.15648e-12, No Iterations 1
DILUPBiCGStab:  Solving for k, Initial residual = 0.0154032, Final residual = 3.1233e-10, No Iterations 2
bounding k, min: -0.000313817 max: 0.134726 average: 0.000291398
ExecutionTime = 18.5 s  ClockTime = 20 s

Courant Number mean: 0.000844262 max: 0.440185
deltaT = 0.002409
Time = 0.0460363

diagonal:  Solving for rho, Initial residual = 0, Final residual = 0, No Iterations 0
PIMPLE: iteration 1
DILUPBiCGStab:  Solving for h, Initial residual = 0.0213808, Final residual = 5.15573e-09, No Iterations 1
DICPCG:  Solving for p_rgh, Initial residual = 0.0272042, Final residual = 0.000265721, No Iterations 134
diagonal:  Solving for rho, Initial residual = 0, Final residual = 0, No Iterations 0
time step continuity errors : sum local = 1.34983e-05, global = -5.16092e-15, cumulative = 1.12727e-12
DICPCG:  Solving for p_rgh, Initial residual = 0.00157161, Final residual = 9.79242e-08, No Iterations 216
diagonal:  Solving for rho, Initial residual = 0, Final residual = 0, No Iterations 0
time step continuity errors : sum local = 1.12492e-05, global = -1.20708e-14, cumulative = 1.1152e-12
DILUPBiCGStab:  Solving for omega, Initial residual = 0.00421198, Final residual = 1.83543e-12, No Iterations 1
DILUPBiCGStab:  Solving for k, Initial residual = 0.0157527, Final residual = 1.61607e-10, No Iterations 2
bounding k, min: -0.0205813 max: 0.174787 average: 0.000289654
ExecutionTime = 19.83 s  ClockTime = 21 s

Courant Number mean: 0.00074806 max: 0.390457
deltaT = 0.00271785
Time = 0.0487541

diagonal:  Solving for rho, Initial residual = 0, Final residual = 0, No Iterations 0
PIMPLE: iteration 1
DILUPBiCGStab:  Solving for h, Initial residual = 0.0225188, Final residual = 4.30208e-09, No Iterations 1
DICPCG:  Solving for p_rgh, Initial residual = 0.0272944, Final residual = 0.000270334, No Iterations 118
diagonal:  Solving for rho, Initial residual = 0, Final residual = 0, No Iterations 0
time step continuity errors : sum local = 1.18227e-05, global = -4.2205e-16, cumulative = 1.11478e-12
DICPCG:  Solving for p_rgh, Initial residual = 0.00103624, Final residual = 8.84724e-08, No Iterations 217
diagonal:  Solving for rho, Initial residual = 0, Final residual = 0, No Iterations 0
time step continuity errors : sum local = 9.31499e-06, global = 1.14452e-15, cumulative = 1.11592e-12
DILUPBiCGStab:  Solving for omega, Initial residual = 0.00440049, Final residual = 3.0447e-12, No Iterations 1
DILUPBiCGStab:  Solving for k, Initial residual = 0.0144363, Final residual = 9.69082e-10, No Iterations 1
bounding k, min: -6.05792e-05 max: 0.196099 average: 0.000288464
ExecutionTime = 20.88 s  ClockTime = 22 s

Courant Number mean: 0.000615955 max: 0.324365
deltaT = 0.00313943
Time = 0.0518936

diagonal:  Solving for rho, Initial residual = 0, Final residual = 0, No Iterations 0
PIMPLE: iteration 1
DILUPBiCGStab:  Solving for h, Initial residual = 0.0241428, Final residual = 2.98422e-09, No Iterations 1
DICPCG:  Solving for p_rgh, Initial residual = 0.0278073, Final residual = 0.000256238, No Iterations 84
diagonal:  Solving for rho, Initial residual = 0, Final residual = 0, No Iterations 0
time step continuity errors : sum local = 1.1241e-05, global = -6.32355e-16, cumulative = 1.11529e-12
DICPCG:  Solving for p_rgh, Initial residual = 0.000704629, Final residual = 8.61395e-08, No Iterations 218
diagonal:  Solving for rho, Initial residual = 0, Final residual = 0, No Iterations 0
time step continuity errors : sum local = 8.21967e-06, global = -1.25302e-14, cumulative = 1.10276e-12
DILUPBiCGStab:  Solving for omega, Initial residual = 0.00466214, Final residual = 5.56347e-12, No Iterations 1
DILUPBiCGStab:  Solving for k, Initial residual = 0.0131554, Final residual = 2.73831e-09, No Iterations 1
bounding k, min: -7.76994e-06 max: 0.201063 average: 0.000286149
ExecutionTime = 21.82 s  ClockTime = 23 s

Courant Number mean: 0.00055174 max: 0.286847
deltaT = 0.00368913
Time = 0.0555827

diagonal:  Solving for rho, Initial residual = 0, Final residual = 0, No Iterations 0
PIMPLE: iteration 1
DILUPBiCGStab:  Solving for h, Initial residual = 0.0261503, Final residual = 4.4698e-09, No Iterations 1
DICPCG:  Solving for p_rgh, Initial residual = 0.0285601, Final residual = 0.000281941, No Iterations 84
diagonal:  Solving for rho, Initial residual = 0, Final residual = 0, No Iterations 0
time step continuity errors : sum local = 1.44664e-05, global = 1.92925e-14, cumulative = 1.12205e-12
DICPCG:  Solving for p_rgh, Initial residual = 0.000660595, Final residual = 9.4166e-08, No Iterations 221
diagonal:  Solving for rho, Initial residual = 0, Final residual = 0, No Iterations 0
time step continuity errors : sum local = 9.69289e-06, global = 8.25081e-15, cumulative = 1.1303e-12
DILUPBiCGStab:  Solving for omega, Initial residual = 0.00496314, Final residual = 1.06309e-11, No Iterations 1
DILUPBiCGStab:  Solving for k, Initial residual = 0.014036, Final residual = 5.66907e-09, No Iterations 1
bounding k, min: -0.00251115 max: 0.206174 average: 0.000283622
ExecutionTime = 22.8 s  ClockTime = 24 s

Courant Number mean: 0.000663362 max: 0.337124
deltaT = 0.00423506
Time = 0.0598178

diagonal:  Solving for rho, Initial residual = 0, Final residual = 0, No Iterations 0
PIMPLE: iteration 1
DILUPBiCGStab:  Solving for h, Initial residual = 0.0274732, Final residual = 6.99439e-09, No Iterations 1
DICPCG:  Solving for p_rgh, Initial residual = 0.0284794, Final residual = 0.000251681, No Iterations 140
diagonal:  Solving for rho, Initial residual = 0, Final residual = 0, No Iterations 0
time step continuity errors : sum local = 2.07036e-05, global = 9.75634e-15, cumulative = 1.14006e-12
DICPCG:  Solving for p_rgh, Initial residual = 0.00072257, Final residual = 9.90681e-08, No Iterations 227
diagonal:  Solving for rho, Initial residual = 0, Final residual = 0, No Iterations 0
time step continuity errors : sum local = 1.4221e-05, global = 1.29205e-14, cumulative = 1.15298e-12
DILUPBiCGStab:  Solving for omega, Initial residual = 0.00510836, Final residual = 1.81072e-11, No Iterations 1
DILUPBiCGStab:  Solving for k, Initial residual = 0.0170259, Final residual = 7.69359e-09, No Iterations 1
bounding k, min: -4.11581e-05 max: 0.231824 average: 0.000281139
ExecutionTime = 24.43 s  ClockTime = 26 s

Courant Number mean: 0.000951822 max: 0.493451
deltaT = 0.00429307
Time = 0.0641108

diagonal:  Solving for rho, Initial residual = 0, Final residual = 0, No Iterations 0
PIMPLE: iteration 1
DILUPBiCGStab:  Solving for h, Initial residual = 0.0254321, Final residual = 6.57381e-09, No Iterations 1
DICPCG:  Solving for p_rgh, Initial residual = 0.0252682, Final residual = 0.000236553, No Iterations 149
diagonal:  Solving for rho, Initial residual = 0, Final residual = 0, No Iterations 0
time step continuity errors : sum local = 2.49507e-05, global = 2.72816e-15, cumulative = 1.15571e-12
DICPCG:  Solving for p_rgh, Initial residual = 0.000809138, Final residual = 8.93949e-08, No Iterations 230
diagonal:  Solving for rho, Initial residual = 0, Final residual = 0, No Iterations 0
time step continuity errors : sum local = 1.76408e-05, global = -5.46448e-16, cumulative = 1.15516e-12
DILUPBiCGStab:  Solving for omega, Initial residual = 0.00467055, Final residual = 1.7917e-11, No Iterations 1
DILUPBiCGStab:  Solving for k, Initial residual = 0.0191976, Final residual = 8.95141e-10, No Iterations 2
bounding k, min: -0.0160864 max: 0.284054 average: 0.000278834
ExecutionTime = 25.83 s  ClockTime = 27 s

Courant Number mean: 0.00114614 max: 0.611398
deltaT = 0.0035052
Time = 0.067616

diagonal:  Solving for rho, Initial residual = 0, Final residual = 0, No Iterations 0
PIMPLE: iteration 1
DILUPBiCGStab:  Solving for h, Initial residual = 0.0191697, Final residual = 2.65674e-09, No Iterations 1
DICPCG:  Solving for p_rgh, Initial residual = 0.0188031, Final residual = 0.00017995, No Iterations 150
diagonal:  Solving for rho, Initial residual = 0, Final residual = 0, No Iterations 0
time step continuity errors : sum local = 1.89822e-05, global = 4.41639e-15, cumulative = 1.15958e-12
DICPCG:  Solving for p_rgh, Initial residual = 0.00084885, Final residual = 9.87723e-08, No Iterations 225
diagonal:  Solving for rho, Initial residual = 0, Final residual = 0, No Iterations 0
time step continuity errors : sum local = 1.47238e-05, global = -1.82799e-15, cumulative = 1.15775e-12
DILUPBiCGStab:  Solving for omega, Initial residual = 0.00354463, Final residual = 6.70027e-12, No Iterations 1
DILUPBiCGStab:  Solving for k, Initial residual = 0.0133336, Final residual = 8.68249e-11, No Iterations 2
bounding k, min: -0.0001157 max: 0.315467 average: 0.000278318
ExecutionTime = 26.96 s  ClockTime = 29 s

Courant Number mean: 0.000961388 max: 0.511227
deltaT = 0.00342788
Time = 0.0710439

diagonal:  Solving for rho, Initial residual = 0, Final residual = 0, No Iterations 0
PIMPLE: iteration 1
DILUPBiCGStab:  Solving for h, Initial residual = 0.017544, Final residual = 1.97545e-09, No Iterations 1
DICPCG:  Solving for p_rgh, Initial residual = 0.0167029, Final residual = 0.000152526, No Iterations 150
diagonal:  Solving for rho, Initial residual = 0, Final residual = 0, No Iterations 0
time step continuity errors : sum local = 1.73766e-05, global = -2.35e-16, cumulative = 1.15751e-12
DICPCG:  Solving for p_rgh, Initial residual = 0.000764922, Final residual = 9.6595e-08, No Iterations 223
diagonal:  Solving for rho, Initial residual = 0, Final residual = 0, No Iterations 0
time step continuity errors : sum local = 1.35393e-05, global = 3.50229e-15, cumulative = 1.16102e-12
DILUPBiCGStab:  Solving for omega, Initial residual = 0.00321957, Final residual = 5.53171e-12, No Iterations 1
DILUPBiCGStab:  Solving for k, Initial residual = 0.0117401, Final residual = 7.67104e-09, No Iterations 1
bounding k, min: -0.00506067 max: 0.340636 average: 0.000276647
ExecutionTime = 28.11 s  ClockTime = 30 s

Courant Number mean: 0.00088823 max: 0.470417
deltaT = 0.00364297
Time = 0.0746869

diagonal:  Solving for rho, Initial residual = 0, Final residual = 0, No Iterations 0
PIMPLE: iteration 1
DILUPBiCGStab:  Solving for h, Initial residual = 0.0175074, Final residual = 2.28942e-09, No Iterations 1
DICPCG:  Solving for p_rgh, Initial residual = 0.0159678, Final residual = 0.000150923, No Iterations 149
diagonal:  Solving for rho, Initial residual = 0, Final residual = 0, No Iterations 0
time step continuity errors : sum local = 1.72642e-05, global = -2.42789e-15, cumulative = 1.15859e-12
DICPCG:  Solving for p_rgh, Initial residual = 0.000651637, Final residual = 9.914e-08, No Iterations 223
diagonal:  Solving for rho, Initial residual = 0, Final residual = 0, No Iterations 0
time step continuity errors : sum local = 1.30816e-05, global = -5.00367e-15, cumulative = 1.15358e-12
DILUPBiCGStab:  Solving for omega, Initial residual = 0.00316197, Final residual = 6.52411e-12, No Iterations 1
DILUPBiCGStab:  Solving for k, Initial residual = 0.0100883, Final residual = 8.16863e-11, No Iterations 2
bounding k, min: -0.0013225 max: 0.350286 average: 0.000275027
ExecutionTime = 29.24 s  ClockTime = 31 s

Courant Number mean: 0.000860517 max: 0.45484
deltaT = 0.00400568
Time = 0.0786926

diagonal:  Solving for rho, Initial residual = 0, Final residual = 0, No Iterations 0
PIMPLE: iteration 1
DILUPBiCGStab:  Solving for h, Initial residual = 0.0180565, Final residual = 3.12033e-09, No Iterations 1
DICPCG:  Solving for p_rgh, Initial residual = 0.0156584, Final residual = 0.000149896, No Iterations 149
diagonal:  Solving for rho, Initial residual = 0, Final residual = 0, No Iterations 0
time step continuity errors : sum local = 1.82843e-05, global = -7.78425e-15, cumulative = 1.1458e-12
DICPCG:  Solving for p_rgh, Initial residual = 0.000564336, Final residual = 9.84241e-08, No Iterations 225
diagonal:  Solving for rho, Initial residual = 0, Final residual = 0, No Iterations 0
time step continuity errors : sum local = 1.33027e-05, global = -8.87249e-15, cumulative = 1.13693e-12
DILUPBiCGStab:  Solving for omega, Initial residual = 0.00319214, Final residual = 8.91884e-12, No Iterations 1
DILUPBiCGStab:  Solving for k, Initial residual = 0.0108373, Final residual = 1.4762e-10, No Iterations 2
bounding k, min: -0.00312137 max: 0.346043 average: 0.000273111
ExecutionTime = 30.36 s  ClockTime = 32 s

Courant Number mean: 0.000882231 max: 0.463006
deltaT = 0.00432539
Time = 0.083018

diagonal:  Solving for rho, Initial residual = 0, Final residual = 0, No Iterations 0
PIMPLE: iteration 1
DILUPBiCGStab:  Solving for h, Initial residual = 0.0182499, Final residual = 4.09689e-09, No Iterations 1
DICPCG:  Solving for p_rgh, Initial residual = 0.0150301, Final residual = 0.000146762, No Iterations 150
diagonal:  Solving for rho, Initial residual = 0, Final residual = 0, No Iterations 0
time step continuity errors : sum local = 1.97591e-05, global = 1.01895e-14, cumulative = 1.14712e-12
DICPCG:  Solving for p_rgh, Initial residual = 0.000520761, Final residual = 9.76192e-08, No Iterations 227
diagonal:  Solving for rho, Initial residual = 0, Final residual = 0, No Iterations 0
time step continuity errors : sum local = 1.39956e-05, global = 8.25593e-15, cumulative = 1.15537e-12
DILUPBiCGStab:  Solving for omega, Initial residual = 0.00315549, Final residual = 1.1369e-11, No Iterations 1
DILUPBiCGStab:  Solving for k, Initial residual = 0.0117766, Final residual = 2.02006e-10, No Iterations 2
bounding k, min: -0.000317006 max: 0.337515 average: 0.000271201
ExecutionTime = 31.52 s  ClockTime = 33 s

Courant Number mean: 0.000937718 max: 0.487791
deltaT = 0.00442986
Time = 0.0874478

diagonal:  Solving for rho, Initial residual = 0, Final residual = 0, No Iterations 0
PIMPLE: iteration 1
DILUPBiCGStab:  Solving for h, Initial residual = 0.0174929, Final residual = 4.08223e-09, No Iterations 1
DICPCG:  Solving for p_rgh, Initial residual = 0.0137267, Final residual = 0.000134141, No Iterations 152
diagonal:  Solving for rho, Initial residual = 0, Final residual = 0, No Iterations 0
time step continuity errors : sum local = 2.03713e-05, global = 8.38193e-15, cumulative = 1.16376e-12
DICPCG:  Solving for p_rgh, Initial residual = 0.000505604, Final residual = 9.29039e-08, No Iterations 228
diagonal:  Solving for rho, Initial residual = 0, Final residual = 0, No Iterations 0
time step continuity errors : sum local = 1.44749e-05, global = -3.72698e-15, cumulative = 1.16003e-12
DILUPBiCGStab:  Solving for omega, Initial residual = 0.00297021, Final residual = 1.16174e-11, No Iterations 1
DILUPBiCGStab:  Solving for k, Initial residual = 0.0108561, Final residual = 2.5647e-10, No Iterations 2
bounding k, min: -0.00305322 max: 0.332101 average: 0.000269225
ExecutionTime = 32.68 s  ClockTime = 34 s

Courant Number mean: 0.000976372 max: 0.505143
deltaT = 0.00438727
Time = 0.0918351

diagonal:  Solving for rho, Initial residual = 0, Final residual = 0, No Iterations 0
PIMPLE: iteration 1
DILUPBiCGStab:  Solving for h, Initial residual = 0.0162583, Final residual = 3.6223e-09, No Iterations 1
DICPCG:  Solving for p_rgh, Initial residual = 0.0121901, Final residual = 0.000113253, No Iterations 154
diagonal:  Solving for rho, Initial residual = 0, Final residual = 0, No Iterations 0
time step continuity errors : sum local = 1.99829e-05, global = 6.04395e-15, cumulative = 1.16607e-12
DICPCG:  Solving for p_rgh, Initial residual = 0.000491409, Final residual = 9.75931e-08, No Iterations 227
diagonal:  Solving for rho, Initial residual = 0, Final residual = 0, No Iterations 0
time step continuity errors : sum local = 1.4475e-05, global = -2.8225e-15, cumulative = 1.16325e-12
DILUPBiCGStab:  Solving for omega, Initial residual = 0.00271995, Final residual = 1.02291e-11, No Iterations 1
DILUPBiCGStab:  Solving for k, Initial residual = 0.00979216, Final residual = 2.85432e-10, No Iterations 2
bounding k, min: -0.000369205 max: 0.330429 average: 0.000267567
ExecutionTime = 33.82 s  ClockTime = 35 s

Courant Number mean: 0.00098048 max: 0.505901
deltaT = 0.00434529
Time = 0.0961804

diagonal:  Solving for rho, Initial residual = 0, Final residual = 0, No Iterations 0
PIMPLE: iteration 1
DILUPBiCGStab:  Solving for h, Initial residual = 0.0151671, Final residual = 3.10553e-09, No Iterations 1
DICPCG:  Solving for p_rgh, Initial residual = 0.0108544, Final residual = 9.77045e-05, No Iterations 155
diagonal:  Solving for rho, Initial residual = 0, Final residual = 0, No Iterations 0
time step continuity errors : sum local = 1.93661e-05, global = 1.63274e-14, cumulative = 1.17958e-12
DICPCG:  Solving for p_rgh, Initial residual = 0.000473503, Final residual = 9.90728e-08, No Iterations 226
diagonal:  Solving for rho, Initial residual = 0, Final residual = 0, No Iterations 0
time step continuity errors : sum local = 1.42126e-05, global = 1.22701e-14, cumulative = 1.19185e-12
DILUPBiCGStab:  Solving for omega, Initial residual = 0.00250044, Final residual = 8.97918e-12, No Iterations 1
DILUPBiCGStab:  Solving for k, Initial residual = 0.00904082, Final residual = 2.37733e-10, No Iterations 2
bounding k, min: -0.00300962 max: 0.328679 average: 0.000265769
ExecutionTime = 35 s  ClockTime = 37 s

Courant Number mean: 0.000968568 max: 0.49748
deltaT = 0.00436628
Time = 0.100547

diagonal:  Solving for rho, Initial residual = 0, Final residual = 0, No Iterations 0
PIMPLE: iteration 1
DILUPBiCGStab:  Solving for h, Initial residual = 0.0143986, Final residual = 2.95873e-09, No Iterations 1
DICPCG:  Solving for p_rgh, Initial residual = 0.00980448, Final residual = 9.31032e-05, No Iterations 155
diagonal:  Solving for rho, Initial residual = 0, Final residual = 0, No Iterations 0
time step continuity errors : sum local = 1.90215e-05, global = -1.50283e-14, cumulative = 1.17682e-12
DICPCG:  Solving for p_rgh, Initial residual = 0.000449396, Final residual = 9.57465e-08, No Iterations 226
diagonal:  Solving for rho, Initial residual = 0, Final residual = 0, No Iterations 0
time step continuity errors : sum local = 1.39438e-05, global = -8.46075e-15, cumulative = 1.16836e-12
DILUPBiCGStab:  Solving for omega, Initial residual = 0.00233547, Final residual = 8.37479e-12, No Iterations 1
DILUPBiCGStab:  Solving for k, Initial residual = 0.00900452, Final residual = 1.79584e-10, No Iterations 2
bounding k, min: -0.000659983 max: 0.324687 average: 0.00026418
ExecutionTime = 36.22 s  ClockTime = 38 s

Courant Number mean: 0.000958849 max: 0.488983
deltaT = 0.00447489
Time = 0.105022

diagonal:  Solving for rho, Initial residual = 0, Final residual = 0, No Iterations 0
PIMPLE: iteration 1
DILUPBiCGStab:  Solving for h, Initial residual = 0.0139684, Final residual = 3.02267e-09, No Iterations 1
DICPCG:  Solving for p_rgh, Initial residual = 0.00900057, Final residual = 8.66351e-05, No Iterations 156
diagonal:  Solving for rho, Initial residual = 0, Final residual = 0, No Iterations 0
time step continuity errors : sum local = 1.90891e-05, global = 1.08629e-14, cumulative = 1.17922e-12
DICPCG:  Solving for p_rgh, Initial residual = 0.000423583, Final residual = 9.6832e-08, No Iterations 226
diagonal:  Solving for rho, Initial residual = 0, Final residual = 0, No Iterations 0
time step continuity errors : sum local = 1.3886e-05, global = 2.46371e-15, cumulative = 1.18168e-12
DILUPBiCGStab:  Solving for omega, Initial residual = 0.0022232, Final residual = 8.51924e-12, No Iterations 1
DILUPBiCGStab:  Solving for k, Initial residual = 0.00896799, Final residual = 1.47385e-10, No Iterations 2
bounding k, min: -0.0020733 max: 0.317937 average: 0.000262462
ExecutionTime = 37.35 s  ClockTime = 39 s

Courant Number mean: 0.000965828 max: 0.487955
deltaT = 0.00458963
Time = 0.109611

diagonal:  Solving for rho, Initial residual = 0, Final residual = 0, No Iterations 0
PIMPLE: iteration 1
DILUPBiCGStab:  Solving for h, Initial residual = 0.0135779, Final residual = 3.20466e-09, No Iterations 1
DICPCG:  Solving for p_rgh, Initial residual = 0.00825193, Final residual = 7.51146e-05, No Iterations 157
diagonal:  Solving for rho, Initial residual = 0, Final residual = 0, No Iterations 0
time step continuity errors : sum local = 1.91325e-05, global = -1.08021e-15, cumulative = 1.1806e-12
DICPCG:  Solving for p_rgh, Initial residual = 0.000399752, Final residual = 9.77521e-08, No Iterations 226
diagonal:  Solving for rho, Initial residual = 0, Final residual = 0, No Iterations 0
time step continuity errors : sum local = 1.38898e-05, global = 1.7205e-15, cumulative = 1.18233e-12
DILUPBiCGStab:  Solving for omega, Initial residual = 0.00211786, Final residual = 8.70125e-12, No Iterations 1
DILUPBiCGStab:  Solving for k, Initial residual = 0.00881273, Final residual = 1.23085e-10, No Iterations 2
bounding k, min: -0.000187654 max: 0.309832 average: 0.000260765
ExecutionTime = 38.5 s  ClockTime = 40 s

Courant Number mean: 0.000978204 max: 0.489194
deltaT = 0.00468626
Time = 0.114297

diagonal:  Solving for rho, Initial residual = 0, Final residual = 0, No Iterations 0
PIMPLE: iteration 1
DILUPBiCGStab:  Solving for h, Initial residual = 0.0131556, Final residual = 3.247e-09, No Iterations 1
DICPCG:  Solving for p_rgh, Initial residual = 0.00753485, Final residual = 7.50287e-05, No Iterations 157
diagonal:  Solving for rho, Initial residual = 0, Final residual = 0, No Iterations 0
time step continuity errors : sum local = 1.93264e-05, global = 6.55297e-15, cumulative = 1.18888e-12
DICPCG:  Solving for p_rgh, Initial residual = 0.000383331, Final residual = 9.85201e-08, No Iterations 226
diagonal:  Solving for rho, Initial residual = 0, Final residual = 0, No Iterations 0
time step continuity errors : sum local = 1.3929e-05, global = 5.87912e-15, cumulative = 1.19476e-12
DILUPBiCGStab:  Solving for omega, Initial residual = 0.00201006, Final residual = 8.74366e-12, No Iterations 1
DILUPBiCGStab:  Solving for k, Initial residual = 0.00838198, Final residual = 8.13851e-11, No Iterations 2
bounding k, min: -0.0015068 max: 0.301595 average: 0.000258991
ExecutionTime = 39.75 s  ClockTime = 41 s

Courant Number mean: 0.000992956 max: 0.49182
deltaT = 0.00476184
Time = 0.119059

diagonal:  Solving for rho, Initial residual = 0, Final residual = 0, No Iterations 0
PIMPLE: iteration 1
DILUPBiCGStab:  Solving for h, Initial residual = 0.0127026, Final residual = 3.46964e-09, No Iterations 1
DICPCG:  Solving for p_rgh, Initial residual = 0.00736649, Final residual = 7.10381e-05, No Iterations 158
diagonal:  Solving for rho, Initial residual = 0, Final residual = 0, No Iterations 0
time step continuity errors : sum local = 1.94476e-05, global = -5.24062e-15, cumulative = 1.18952e-12
DICPCG:  Solving for p_rgh, Initial residual = 0.00037072, Final residual = 9.85787e-08, No Iterations 226
diagonal:  Solving for rho, Initial residual = 0, Final residual = 0, No Iterations 0
time step continuity errors : sum local = 1.39681e-05, global = -1.50133e-14, cumulative = 1.1745e-12
DILUPBiCGStab:  Solving for omega, Initial residual = 0.00190177, Final residual = 8.65209e-12, No Iterations 1
DILUPBiCGStab:  Solving for k, Initial residual = 0.0081653, Final residual = 5.89992e-11, No Iterations 2
bounding k, min: -0.000103376 max: 0.294032 average: 0.000257422
ExecutionTime = 40.9 s  ClockTime = 42 s

Courant Number mean: 0.00100767 max: 0.494295
deltaT = 0.00481388
Time = 0.123873

diagonal:  Solving for rho, Initial residual = 0, Final residual = 0, No Iterations 0
PIMPLE: iteration 1
DILUPBiCGStab:  Solving for h, Initial residual = 0.0122218, Final residual = 2.93892e-09, No Iterations 1
DICPCG:  Solving for p_rgh, Initial residual = 0.00717407, Final residual = 7.13383e-05, No Iterations 158
diagonal:  Solving for rho, Initial residual = 0, Final residual = 0, No Iterations 0
time step continuity errors : sum local = 1.94936e-05, global = 4.562e-15, cumulative = 1.17907e-12
DICPCG:  Solving for p_rgh, Initial residual = 0.000359094, Final residual = 9.73938e-08, No Iterations 226
diagonal:  Solving for rho, Initial residual = 0, Final residual = 0, No Iterations 0
time step continuity errors : sum local = 1.39314e-05, global = 2.70733e-14, cumulative = 1.20614e-12
DILUPBiCGStab:  Solving for omega, Initial residual = 0.00179404, Final residual = 8.46092e-12, No Iterations 1
DILUPBiCGStab:  Solving for k, Initial residual = 0.00786017, Final residual = 6.32261e-11, No Iterations 2
bounding k, min: -0.00123502 max: 0.28677 average: 0.000255686
ExecutionTime = 42.24 s  ClockTime = 44 s

Courant Number mean: 0.00101887 max: 0.494309
deltaT = 0.00486737
Time = 0.128741

diagonal:  Solving for rho, Initial residual = 0, Final residual = 0, No Iterations 0
PIMPLE: iteration 1
DILUPBiCGStab:  Solving for h, Initial residual = 0.0117803, Final residual = 2.89236e-09, No Iterations 1
DICPCG:  Solving for p_rgh, Initial residual = 0.00698714, Final residual = 6.49427e-05, No Iterations 159
diagonal:  Solving for rho, Initial residual = 0, Final residual = 0, No Iterations 0
time step continuity errors : sum local = 1.94155e-05, global = -2.09741e-14, cumulative = 1.18516e-12
DICPCG:  Solving for p_rgh, Initial residual = 0.000346622, Final residual = 9.70735e-08, No Iterations 226
diagonal:  Solving for rho, Initial residual = 0, Final residual = 0, No Iterations 0
time step continuity errors : sum local = 1.38666e-05, global = -2.3914e-14, cumulative = 1.16125e-12
DILUPBiCGStab:  Solving for omega, Initial residual = 0.00169546, Final residual = 8.35321e-12, No Iterations 1
DILUPBiCGStab:  Solving for k, Initial residual = 0.0076305, Final residual = 5.38612e-11, No Iterations 2
bounding k, min: -0.00124421 max: 0.27963 average: 0.000254066
ExecutionTime = 43.74 s  ClockTime = 45 s

Courant Number mean: 0.00103053 max: 0.493392
deltaT = 0.00492237
Time = 0.133663

diagonal:  Solving for rho, Initial residual = 0, Final residual = 0, No Iterations 0
PIMPLE: iteration 1
DILUPBiCGStab:  Solving for h, Initial residual = 0.0113744, Final residual = 3.1862e-09, No Iterations 1
DICPCG:  Solving for p_rgh, Initial residual = 0.0068071, Final residual = 6.32928e-05, No Iterations 159
diagonal:  Solving for rho, Initial residual = 0, Final residual = 0, No Iterations 0
time step continuity errors : sum local = 1.93726e-05, global = 1.4873e-14, cumulative = 1.17612e-12
DICPCG:  Solving for p_rgh, Initial residual = 0.000335248, Final residual = 9.4453e-08, No Iterations 226
diagonal:  Solving for rho, Initial residual = 0, Final residual = 0, No Iterations 0
time step continuity errors : sum local = 1.3811e-05, global = 1.80787e-14, cumulative = 1.1942e-12
DILUPBiCGStab:  Solving for omega, Initial residual = 0.00160509, Final residual = 8.27706e-12, No Iterations 1
DILUPBiCGStab:  Solving for k, Initial residual = 0.00740526, Final residual = 5.39088e-11, No Iterations 2
bounding k, min: -0.000626438 max: 0.27248 average: 0.000252509
ExecutionTime = 45.23 s  ClockTime = 47 s

Courant Number mean: 0.00104333 max: 0.49248
deltaT = 0.00500773
Time = 0.138671

diagonal:  Solving for rho, Initial residual = 0, Final residual = 0, No Iterations 0
PIMPLE: iteration 1
DILUPBiCGStab:  Solving for h, Initial residual = 0.0110622, Final residual = 2.66344e-09, No Iterations 1
DICPCG:  Solving for p_rgh, Initial residual = 0.00666576, Final residual = 6.41982e-05, No Iterations 159
diagonal:  Solving for rho, Initial residual = 0, Final residual = 0, No Iterations 0
time step continuity errors : sum local = 1.95788e-05, global = -2.05337e-14, cumulative = 1.17367e-12
DICPCG:  Solving for p_rgh, Initial residual = 0.00032556, Final residual = 9.65522e-08, No Iterations 226
diagonal:  Solving for rho, Initial residual = 0, Final residual = 0, No Iterations 0
time step continuity errors : sum local = 1.38295e-05, global = -1.9537e-14, cumulative = 1.15413e-12
DILUPBiCGStab:  Solving for omega, Initial residual = 0.00152939, Final residual = 8.44478e-12, No Iterations 1
DILUPBiCGStab:  Solving for k, Initial residual = 0.00729342, Final residual = 4.78519e-11, No Iterations 2
ExecutionTime = 46.41 s  ClockTime = 48 s

Courant Number mean: 0.00106385 max: 0.494341
deltaT = 0.00506664
Time = 0.143737

diagonal:  Solving for rho, Initial residual = 0, Final residual = 0, No Iterations 0
PIMPLE: iteration 1
DILUPBiCGStab:  Solving for h, Initial residual = 0.0107134, Final residual = 2.48837e-09, No Iterations 1
DICPCG:  Solving for p_rgh, Initial residual = 0.00649352, Final residual = 6.38391e-05, No Iterations 159
diagonal:  Solving for rho, Initial residual = 0, Final residual = 0, No Iterations 0
time step continuity errors : sum local = 1.96236e-05, global = 5.99661e-15, cumulative = 1.16013e-12
DICPCG:  Solving for p_rgh, Initial residual = 0.00031709, Final residual = 9.6935e-08, No Iterations 226
diagonal:  Solving for rho, Initial residual = 0, Final residual = 0, No Iterations 0
time step continuity errors : sum local = 1.37623e-05, global = 5.42454e-15, cumulative = 1.16555e-12
DILUPBiCGStab:  Solving for omega, Initial residual = 0.00145211, Final residual = 8.43055e-12, No Iterations 1
DILUPBiCGStab:  Solving for k, Initial residual = 0.00705941, Final residual = 4.62027e-11, No Iterations 2
bounding k, min: -0.000733199 max: 0.258081 average: 0.000249286
ExecutionTime = 47.68 s  ClockTime = 49 s

Courant Number mean: 0.0010796 max: 0.493283
deltaT = 0.00512732
Time = 0.148865

diagonal:  Solving for rho, Initial residual = 0, Final residual = 0, No Iterations 0
PIMPLE: iteration 1
DILUPBiCGStab:  Solving for h, Initial residual = 0.0103913, Final residual = 2.76728e-09, No Iterations 1
DICPCG:  Solving for p_rgh, Initial residual = 0.00632698, Final residual = 6.27013e-05, No Iterations 159
diagonal:  Solving for rho, Initial residual = 0, Final residual = 0, No Iterations 0
time step continuity errors : sum local = 1.96381e-05, global = -1.55411e-14, cumulative = 1.15001e-12
DICPCG:  Solving for p_rgh, Initial residual = 0.00030807, Final residual = 9.45872e-08, No Iterations 226
diagonal:  Solving for rho, Initial residual = 0, Final residual = 0, No Iterations 0
time step continuity errors : sum local = 1.3729e-05, global = 1.59654e-14, cumulative = 1.16598e-12
DILUPBiCGStab:  Solving for omega, Initial residual = 0.0013808, Final residual = 8.41154e-12, No Iterations 1
DILUPBiCGStab:  Solving for k, Initial residual = 0.00700375, Final residual = 4.59475e-11, No Iterations 2
bounding k, min: -0.000294624 max: 0.251134 average: 0.00024785
ExecutionTime = 49.18 s  ClockTime = 51 s

Courant Number mean: 0.0010983 max: 0.49321
deltaT = 0.00518985
Time = 0.154054

diagonal:  Solving for rho, Initial residual = 0, Final residual = 0, No Iterations 0
PIMPLE: iteration 1
DILUPBiCGStab:  Solving for h, Initial residual = 0.0100932, Final residual = 2.28255e-09, No Iterations 1
DICPCG:  Solving for p_rgh, Initial residual = 0.00616313, Final residual = 5.6667e-05, No Iterations 160
diagonal:  Solving for rho, Initial residual = 0, Final residual = 0, No Iterations 0
time step continuity errors : sum local = 1.96181e-05, global = -2.39291e-14, cumulative = 1.14205e-12
DICPCG:  Solving for p_rgh, Initial residual = 0.00029948, Final residual = 9.50196e-08, No Iterations 226
diagonal:  Solving for rho, Initial residual = 0, Final residual = 0, No Iterations 0
time step continuity errors : sum local = 1.37004e-05, global = -2.19674e-14, cumulative = 1.12008e-12
DILUPBiCGStab:  Solving for omega, Initial residual = 0.0013149, Final residual = 8.38809e-12, No Iterations 1
DILUPBiCGStab:  Solving for k, Initial residual = 0.00678371, Final residual = 4.31383e-11, No Iterations 2
ExecutionTime = 50.66 s  ClockTime = 52 s

Courant Number mean: 0.00111966 max: 0.493365
deltaT = 0.00525432
Time = 0.159309

diagonal:  Solving for rho, Initial residual = 0, Final residual = 0, No Iterations 0
PIMPLE: iteration 1
DILUPBiCGStab:  Solving for h, Initial residual = 0.00981741, Final residual = 2.24617e-09, No Iterations 1
DICPCG:  Solving for p_rgh, Initial residual = 0.00600423, Final residual = 5.66206e-05, No Iterations 160
diagonal:  Solving for rho, Initial residual = 0, Final residual = 0, No Iterations 0
time step continuity errors : sum local = 1.97154e-05, global = 2.57218e-15, cumulative = 1.12265e-12
DICPCG:  Solving for p_rgh, Initial residual = 0.000292965, Final residual = 9.57686e-08, No Iterations 226
diagonal:  Solving for rho, Initial residual = 0, Final residual = 0, No Iterations 0
time step continuity errors : sum local = 1.36607e-05, global = 2.10887e-15, cumulative = 1.12476e-12
DILUPBiCGStab:  Solving for omega, Initial residual = 0.00125385, Final residual = 8.36181e-12, No Iterations 1
DILUPBiCGStab:  Solving for k, Initial residual = 0.00660648, Final residual = 3.93078e-11, No Iterations 2
bounding k, min: -0.0027161 max: 0.237588 average: 0.000244699
ExecutionTime = 52.32 s  ClockTime = 54 s

Courant Number mean: 0.0011427 max: 0.493324
deltaT = 0.00532083
Time = 0.16463

diagonal:  Solving for rho, Initial residual = 0, Final residual = 0, No Iterations 0
PIMPLE: iteration 1
DILUPBiCGStab:  Solving for h, Initial residual = 0.00956234, Final residual = 2.53301e-09, No Iterations 1
DICPCG:  Solving for p_rgh, Initial residual = 0.00584946, Final residual = 5.55562e-05, No Iterations 160
diagonal:  Solving for rho, Initial residual = 0, Final residual = 0, No Iterations 0
time step continuity errors : sum local = 1.97651e-05, global = 7.11919e-15, cumulative = 1.13188e-12
DICPCG:  Solving for p_rgh, Initial residual = 0.000285651, Final residual = 9.4996e-08, No Iterations 226
diagonal:  Solving for rho, Initial residual = 0, Final residual = 0, No Iterations 0
time step continuity errors : sum local = 1.36522e-05, global = -2.40192e-15, cumulative = 1.12948e-12
DILUPBiCGStab:  Solving for omega, Initial residual = 0.00119683, Final residual = 8.33256e-12, No Iterations 1
DILUPBiCGStab:  Solving for k, Initial residual = 0.00656665, Final residual = 3.8548e-11, No Iterations 2
bounding k, min: -0.0006345 max: 0.231181 average: 0.000243317
ExecutionTime = 53.51 s  ClockTime = 55 s

Courant Number mean: 0.00116876 max: 0.494087
deltaT = 0.00538949
Time = 0.170019

diagonal:  Solving for rho, Initial residual = 0, Final residual = 0, No Iterations 0
PIMPLE: iteration 1
DILUPBiCGStab:  Solving for h, Initial residual = 0.00932533, Final residual = 2.14662e-09, No Iterations 1
DICPCG:  Solving for p_rgh, Initial residual = 0.00569665, Final residual = 5.60599e-05, No Iterations 160
diagonal:  Solving for rho, Initial residual = 0, Final residual = 0, No Iterations 0
time step continuity errors : sum local = 1.98992e-05, global = 1.40025e-14, cumulative = 1.14348e-12
DICPCG:  Solving for p_rgh, Initial residual = 0.000279781, Final residual = 9.50035e-08, No Iterations 226
diagonal:  Solving for rho, Initial residual = 0, Final residual = 0, No Iterations 0
time step continuity errors : sum local = 1.36394e-05, global = 2.94596e-15, cumulative = 1.14643e-12
DILUPBiCGStab:  Solving for omega, Initial residual = 0.00114348, Final residual = 8.30405e-12, No Iterations 1
DILUPBiCGStab:  Solving for k, Initial residual = 0.00642122, Final residual = 9.74059e-09, No Iterations 1
bounding k, min: -0.000109582 max: 0.224897 average: 0.000241835
ExecutionTime = 54.62 s  ClockTime = 56 s

Courant Number mean: 0.00119694 max: 0.494896
deltaT = 0.0054604
Time = 0.175479

diagonal:  Solving for rho, Initial residual = 0, Final residual = 0, No Iterations 0
PIMPLE: iteration 1
DILUPBiCGStab:  Solving for h, Initial residual = 0.00910594, Final residual = 2.14783e-09, No Iterations 1
DICPCG:  Solving for p_rgh, Initial residual = 0.00554778, Final residual = 5.42786e-05, No Iterations 161
diagonal:  Solving for rho, Initial residual = 0, Final residual = 0, No Iterations 0
time step continuity errors : sum local = 2.00135e-05, global = 1.12925e-14, cumulative = 1.15772e-12
DICPCG:  Solving for p_rgh, Initial residual = 0.000273918, Final residual = 9.6722e-08, No Iterations 226
diagonal:  Solving for rho, Initial residual = 0, Final residual = 0, No Iterations 0
time step continuity errors : sum local = 1.36186e-05, global = 1.21216e-14, cumulative = 1.16984e-12
DILUPBiCGStab:  Solving for omega, Initial residual = 0.00109362, Final residual = 8.27877e-12, No Iterations 1
DILUPBiCGStab:  Solving for k, Initial residual = 0.00626373, Final residual = 8.7128e-09, No Iterations 1
bounding k, min: -0.00179486 max: 0.21865 average: 0.000240316
ExecutionTime = 55.96 s  ClockTime = 58 s

Courant Number mean: 0.0012269 max: 0.495573
deltaT = 0.0054968
Time = 0.180976

diagonal:  Solving for rho, Initial residual = 0, Final residual = 0, No Iterations 0
PIMPLE: iteration 1
DILUPBiCGStab:  Solving for h, Initial residual = 0.00884468, Final residual = 2.33635e-09, No Iterations 1
DICPCG:  Solving for p_rgh, Initial residual = 0.00550964, Final residual = 5.47464e-05, No Iterations 160
diagonal:  Solving for rho, Initial residual = 0, Final residual = 0, No Iterations 0
time step continuity errors : sum local = 1.9932e-05, global = -3.46979e-15, cumulative = 1.16637e-12
DICPCG:  Solving for p_rgh, Initial residual = 0.000269568, Final residual = 9.48406e-08, No Iterations 226
diagonal:  Solving for rho, Initial residual = 0, Final residual = 0, No Iterations 0
time step continuity errors : sum local = 1.35192e-05, global = -2.86054e-15, cumulative = 1.16351e-12
DILUPBiCGStab:  Solving for omega, Initial residual = 0.00104144, Final residual = 8.02e-12, No Iterations 1
DILUPBiCGStab:  Solving for k, Initial residual = 0.00617579, Final residual = 9.1996e-09, No Iterations 1
bounding k, min: -0.000318524 max: 0.212608 average: 0.000238961
ExecutionTime = 57.23 s  ClockTime = 59 s

Courant Number mean: 0.00125069 max: 0.492826
deltaT = 0.00557159
Time = 0.186548

diagonal:  Solving for rho, Initial residual = 0, Final residual = 0, No Iterations 0
PIMPLE: iteration 1
DILUPBiCGStab:  Solving for h, Initial residual = 0.00865816, Final residual = 2.05236e-09, No Iterations 1
DICPCG:  Solving for p_rgh, Initial residual = 0.00558981, Final residual = 5.4761e-05, No Iterations 160
diagonal:  Solving for rho, Initial residual = 0, Final residual = 0, No Iterations 0
time step continuity errors : sum local = 2.00702e-05, global = 8.58379e-15, cumulative = 1.17209e-12
DICPCG:  Solving for p_rgh, Initial residual = 0.000263311, Final residual = 9.53743e-08, No Iterations 226
diagonal:  Solving for rho, Initial residual = 0, Final residual = 0, No Iterations 0
time step continuity errors : sum local = 1.35339e-05, global = -1.04334e-14, cumulative = 1.16166e-12
DILUPBiCGStab:  Solving for omega, Initial residual = 0.000998638, Final residual = 8.01277e-12, No Iterations 1
DILUPBiCGStab:  Solving for k, Initial residual = 0.00606598, Final residual = 8.10264e-09, No Iterations 1
bounding k, min: -0.000351706 max: 0.206778 average: 0.000237537
ExecutionTime = 58.54 s  ClockTime = 60 s

Courant Number mean: 0.00128568 max: 0.49456
deltaT = 0.00564897
Time = 0.192197

diagonal:  Solving for rho, Initial residual = 0, Final residual = 0, No Iterations 0
PIMPLE: iteration 1
DILUPBiCGStab:  Solving for h, Initial residual = 0.00848558, Final residual = 2.06826e-09, No Iterations 1
DICPCG:  Solving for p_rgh, Initial residual = 0.00566742, Final residual = 5.54469e-05, No Iterations 160
diagonal:  Solving for rho, Initial residual = 0, Final residual = 0, No Iterations 0
time step continuity errors : sum local = 2.02854e-05, global = 1.90359e-14, cumulative = 1.1807e-12
DICPCG:  Solving for p_rgh, Initial residual = 0.000259367, Final residual = 9.72153e-08, No Iterations 226
diagonal:  Solving for rho, Initial residual = 0, Final residual = 0, No Iterations 0
time step continuity errors : sum local = 1.3539e-05, global = 5.0729e-15, cumulative = 1.18577e-12
DILUPBiCGStab:  Solving for omega, Initial residual = 0.00095861, Final residual = 8.01808e-12, No Iterations 1
DILUPBiCGStab:  Solving for k, Initial residual = 0.00596769, Final residual = 7.52204e-09, No Iterations 1
bounding k, min: -0.00108129 max: 0.201049 average: 0.000236107
ExecutionTime = 59.73 s  ClockTime = 61 s

Courant Number mean: 0.00132296 max: 0.49607
deltaT = 0.00568875
Time = 0.197886

diagonal:  Solving for rho, Initial residual = 0, Final residual = 0, No Iterations 0
PIMPLE: iteration 1
DILUPBiCGStab:  Solving for h, Initial residual = 0.00826818, Final residual = 2.10452e-09, No Iterations 1
DICPCG:  Solving for p_rgh, Initial residual = 0.00569981, Final residual = 5.44382e-05, No Iterations 160
diagonal:  Solving for rho, Initial residual = 0, Final residual = 0, No Iterations 0
time step continuity errors : sum local = 2.0224e-05, global = 8.87746e-15, cumulative = 1.19465e-12
DICPCG:  Solving for p_rgh, Initial residual = 0.000255531, Final residual = 9.60747e-08, No Iterations 226
diagonal:  Solving for rho, Initial residual = 0, Final residual = 0, No Iterations 0
time step continuity errors : sum local = 1.34526e-05, global = 4.99697e-15, cumulative = 1.19964e-12
DILUPBiCGStab:  Solving for omega, Initial residual = 0.000915824, Final residual = 7.78927e-12, No Iterations 1
DILUPBiCGStab:  Solving for k, Initial residual = 0.0059034, Final residual = 7.76958e-09, No Iterations 1
bounding k, min: -0.00011651 max: 0.195498 average: 0.00023478
ExecutionTime = 60.94 s  ClockTime = 63 s

Courant Number mean: 0.00135287 max: 0.493828
deltaT = 0.00577061
Time = 0.203656

diagonal:  Solving for rho, Initial residual = 0, Final residual = 0, No Iterations 0
PIMPLE: iteration 1
DILUPBiCGStab:  Solving for h, Initial residual = 0.00812186, Final residual = 2.02628e-09, No Iterations 1
DICPCG:  Solving for p_rgh, Initial residual = 0.00575773, Final residual = 5.45203e-05, No Iterations 160
diagonal:  Solving for rho, Initial residual = 0, Final residual = 0, No Iterations 0
time step continuity errors : sum local = 2.04259e-05, global = -3.57916e-15, cumulative = 1.19607e-12
DICPCG:  Solving for p_rgh, Initial residual = 0.000251271, Final residual = 9.73929e-08, No Iterations 226
diagonal:  Solving for rho, Initial residual = 0, Final residual = 0, No Iterations 0
time step continuity errors : sum local = 1.34731e-05, global = -4.93868e-15, cumulative = 1.19113e-12
DILUPBiCGStab:  Solving for omega, Initial residual = 0.000881114, Final residual = 7.83917e-12, No Iterations 1
DILUPBiCGStab:  Solving for k, Initial residual = 0.00578993, Final residual = 7.21233e-09, No Iterations 1
bounding k, min: -0.000151612 max: 0.19006 average: 0.000233374
ExecutionTime = 62.12 s  ClockTime = 64 s

Courant Number mean: 0.00139498 max: 0.49571
deltaT = 0.00581273
Time = 0.209469

diagonal:  Solving for rho, Initial residual = 0, Final residual = 0, No Iterations 0
PIMPLE: iteration 1
DILUPBiCGStab:  Solving for h, Initial residual = 0.00792932, Final residual = 1.99002e-09, No Iterations 1
DICPCG:  Solving for p_rgh, Initial residual = 0.00576864, Final residual = 5.41944e-05, No Iterations 160
diagonal:  Solving for rho, Initial residual = 0, Final residual = 0, No Iterations 0
time step continuity errors : sum local = 2.04021e-05, global = -8.89221e-16, cumulative = 1.19024e-12
DICPCG:  Solving for p_rgh, Initial residual = 0.000246792, Final residual = 9.70851e-08, No Iterations 226
diagonal:  Solving for rho, Initial residual = 0, Final residual = 0, No Iterations 0
time step continuity errors : sum local = 1.34015e-05, global = -3.18605e-15, cumulative = 1.18705e-12
DILUPBiCGStab:  Solving for omega, Initial residual = 0.000843455, Final residual = 7.66402e-12, No Iterations 1
DILUPBiCGStab:  Solving for k, Initial residual = 0.00565665, Final residual = 6.2786e-09, No Iterations 1
bounding k, min: -0.000554122 max: 0.184794 average: 0.000232021
ExecutionTime = 63.43 s  ClockTime = 65 s

Courant Number mean: 0.00142901 max: 0.494232
deltaT = 0.00589949
Time = 0.215368

diagonal:  Solving for rho, Initial residual = 0, Final residual = 0, No Iterations 0
PIMPLE: iteration 1
DILUPBiCGStab:  Solving for h, Initial residual = 0.00780578, Final residual = 2.02704e-09, No Iterations 1
DICPCG:  Solving for p_rgh, Initial residual = 0.005807, Final residual = 5.44885e-05, No Iterations 160
diagonal:  Solving for rho, Initial residual = 0, Final residual = 0, No Iterations 0
time step continuity errors : sum local = 2.06614e-05, global = -3.79724e-15, cumulative = 1.18325e-12
DICPCG:  Solving for p_rgh, Initial residual = 0.000243771, Final residual = 9.89279e-08, No Iterations 226
diagonal:  Solving for rho, Initial residual = 0, Final residual = 0, No Iterations 0
time step continuity errors : sum local = 1.34268e-05, global = -5.87226e-15, cumulative = 1.17738e-12
DILUPBiCGStab:  Solving for omega, Initial residual = 0.000813145, Final residual = 7.76212e-12, No Iterations 1
DILUPBiCGStab:  Solving for k, Initial residual = 0.0056876, Final residual = 6.57833e-09, No Iterations 1
bounding k, min: -0.000439263 max: 0.179656 average: 0.00023073
ExecutionTime = 64.66 s  ClockTime = 66 s

Courant Number mean: 0.00147584 max: 0.496302
deltaT = 0.00594418
Time = 0.221313

diagonal:  Solving for rho, Initial residual = 0, Final residual = 0, No Iterations 0
PIMPLE: iteration 1
DILUPBiCGStab:  Solving for h, Initial residual = 0.00763471, Final residual = 1.99377e-09, No Iterations 1
DICPCG:  Solving for p_rgh, Initial residual = 0.00579606, Final residual = 5.35659e-05, No Iterations 160
diagonal:  Solving for rho, Initial residual = 0, Final residual = 0, No Iterations 0
time step continuity errors : sum local = 2.06277e-05, global = 1.3465e-14, cumulative = 1.19085e-12
DICPCG:  Solving for p_rgh, Initial residual = 0.000240484, Final residual = 9.81085e-08, No Iterations 226
diagonal:  Solving for rho, Initial residual = 0, Final residual = 0, No Iterations 0
time step continuity errors : sum local = 1.3373e-05, global = 9.71963e-15, cumulative = 1.20057e-12
DILUPBiCGStab:  Solving for omega, Initial residual = 0.000779762, Final residual = 7.63273e-12, No Iterations 1
DILUPBiCGStab:  Solving for k, Initial residual = 0.00554658, Final residual = 6.20461e-09, No Iterations 1
ExecutionTime = 65.82 s  ClockTime = 68 s

Courant Number mean: 0.00151396 max: 0.495088
deltaT = 0.0059899
Time = 0.227303

diagonal:  Solving for rho, Initial residual = 0, Final residual = 0, No Iterations 0
PIMPLE: iteration 1
DILUPBiCGStab:  Solving for h, Initial residual = 0.00747312, Final residual = 1.95401e-09, No Iterations 1
DICPCG:  Solving for p_rgh, Initial residual = 0.00577661, Final residual = 5.39904e-05, No Iterations 160
diagonal:  Solving for rho, Initial residual = 0, Final residual = 0, No Iterations 0
time step continuity errors : sum local = 2.06778e-05, global = 4.33457e-15, cumulative = 1.2049e-12
DICPCG:  Solving for p_rgh, Initial residual = 0.000237836, Final residual = 9.85914e-08, No Iterations 226
diagonal:  Solving for rho, Initial residual = 0, Final residual = 0, No Iterations 0
time step continuity errors : sum local = 1.33027e-05, global = 4.35052e-15, cumulative = 1.20925e-12
DILUPBiCGStab:  Solving for omega, Initial residual = 0.000748474, Final residual = 7.5514e-12, No Iterations 1
DILUPBiCGStab:  Solving for k, Initial residual = 0.00543236, Final residual = 5.75862e-09, No Iterations 1
bounding k, min: -0.000168891 max: 0.169869 average: 0.000228074
ExecutionTime = 66.98 s  ClockTime = 69 s

Courant Number mean: 0.00155346 max: 0.493343
deltaT = 0.00608423
Time = 0.233387

diagonal:  Solving for rho, Initial residual = 0, Final residual = 0, No Iterations 0
PIMPLE: iteration 1
DILUPBiCGStab:  Solving for h, Initial residual = 0.00737682, Final residual = 1.99215e-09, No Iterations 1
DICPCG:  Solving for p_rgh, Initial residual = 0.00579152, Final residual = 5.37318e-05, No Iterations 160
diagonal:  Solving for rho, Initial residual = 0, Final residual = 0, No Iterations 0
time step continuity errors : sum local = 2.09418e-05, global = -2.93012e-15, cumulative = 1.20632e-12
DICPCG:  Solving for p_rgh, Initial residual = 0.000233893, Final residual = 9.98996e-08, No Iterations 226
diagonal:  Solving for rho, Initial residual = 0, Final residual = 0, No Iterations 0
time step continuity errors : sum local = 1.33536e-05, global = -4.11415e-15, cumulative = 1.20221e-12
DILUPBiCGStab:  Solving for omega, Initial residual = 0.000723668, Final residual = 7.75413e-12, No Iterations 1
DILUPBiCGStab:  Solving for k, Initial residual = 0.00543396, Final residual = 5.64417e-09, No Iterations 1
bounding k, min: -0.000198237 max: 0.165183 average: 0.000226827
ExecutionTime = 68.15 s  ClockTime = 70 s

Courant Number mean: 0.00160785 max: 0.496183
deltaT = 0.00613291
Time = 0.23952

diagonal:  Solving for rho, Initial residual = 0, Final residual = 0, No Iterations 0
PIMPLE: iteration 1
DILUPBiCGStab:  Solving for h, Initial residual = 0.00723031, Final residual = 1.95379e-09, No Iterations 1
DICPCG:  Solving for p_rgh, Initial residual = 0.00575602, Final residual = 5.34779e-05, No Iterations 160
diagonal:  Solving for rho, Initial residual = 0, Final residual = 0, No Iterations 0
time step continuity errors : sum local = 2.09778e-05, global = -1.9418e-16, cumulative = 1.20201e-12
DICPCG:  Solving for p_rgh, Initial residual = 0.000231209, Final residual = 9.98661e-08, No Iterations 226
diagonal:  Solving for rho, Initial residual = 0, Final residual = 0, No Iterations 0
time step continuity errors : sum local = 1.33058e-05, global = -8.28289e-15, cumulative = 1.19373e-12
DILUPBiCGStab:  Solving for omega, Initial residual = 0.000695677, Final residual = 7.69786e-12, No Iterations 1
DILUPBiCGStab:  Solving for k, Initial residual = 0.00534553, Final residual = 5.28448e-09, No Iterations 1
ExecutionTime = 69.33 s  ClockTime = 71 s

Courant Number mean: 0.0016521 max: 0.495379
deltaT = 0.00618277
Time = 0.245702

diagonal:  Solving for rho, Initial residual = 0, Final residual = 0, No Iterations 0
PIMPLE: iteration 1
DILUPBiCGStab:  Solving for h, Initial residual = 0.00709162, Final residual = 1.9248e-09, No Iterations 1
DICPCG:  Solving for p_rgh, Initial residual = 0.00571659, Final residual = 5.33674e-05, No Iterations 160
diagonal:  Solving for rho, Initial residual = 0, Final residual = 0, No Iterations 0
time step continuity errors : sum local = 2.10383e-05, global = 1.70867e-14, cumulative = 1.21082e-12
DICPCG:  Solving for p_rgh, Initial residual = 0.000228993, Final residual = 9.43026e-08, No Iterations 227
diagonal:  Solving for rho, Initial residual = 0, Final residual = 0, No Iterations 0
time step continuity errors : sum local = 1.32484e-05, global = 8.76231e-15, cumulative = 1.21958e-12
DILUPBiCGStab:  Solving for omega, Initial residual = 0.000669333, Final residual = 7.64859e-12, No Iterations 1
DILUPBiCGStab:  Solving for k, Initial residual = 0.00523916, Final residual = 4.96986e-09, No Iterations 1
bounding k, min: -0.000243021 max: 0.156206 average: 0.000224262
ExecutionTime = 70.49 s  ClockTime = 72 s

Courant Number mean: 0.00169803 max: 0.494207
deltaT = 0.00623386
Time = 0.251936

diagonal:  Solving for rho, Initial residual = 0, Final residual = 0, No Iterations 0
PIMPLE: iteration 1
DILUPBiCGStab:  Solving for h, Initial residual = 0.00696018, Final residual = 1.90518e-09, No Iterations 1
DICPCG:  Solving for p_rgh, Initial residual = 0.00567346, Final residual = 5.2652e-05, No Iterations 160
diagonal:  Solving for rho, Initial residual = 0, Final residual = 0, No Iterations 0
time step continuity errors : sum local = 2.10643e-05, global = 5.52823e-15, cumulative = 1.22511e-12
DICPCG:  Solving for p_rgh, Initial residual = 0.000226571, Final residual = 9.39357e-08, No Iterations 227
diagonal:  Solving for rho, Initial residual = 0, Final residual = 0, No Iterations 0
time step continuity errors : sum local = 1.32024e-05, global = -1.39992e-14, cumulative = 1.21111e-12
DILUPBiCGStab:  Solving for omega, Initial residual = 0.000644504, Final residual = 7.60447e-12, No Iterations 1
DILUPBiCGStab:  Solving for k, Initial residual = 0.00514877, Final residual = 4.92033e-09, No Iterations 1
bounding k, min: -0.000678731 max: 0.151891 average: 0.000223017
ExecutionTime = 71.66 s  ClockTime = 73 s

Courant Number mean: 0.00174581 max: 0.493174
deltaT = 0.00633952
Time = 0.258276

diagonal:  Solving for rho, Initial residual = 0, Final residual = 0, No Iterations 0
PIMPLE: iteration 1
DILUPBiCGStab:  Solving for h, Initial residual = 0.00689348, Final residual = 1.95379e-09, No Iterations 1
DICPCG:  Solving for p_rgh, Initial residual = 0.00567071, Final residual = 5.2906e-05, No Iterations 160
diagonal:  Solving for rho, Initial residual = 0, Final residual = 0, No Iterations 0
time step continuity errors : sum local = 2.14148e-05, global = 6.60656e-15, cumulative = 1.21772e-12
DICPCG:  Solving for p_rgh, Initial residual = 0.000223137, Final residual = 9.45453e-08, No Iterations 227
diagonal:  Solving for rho, Initial residual = 0, Final residual = 0, No Iterations 0
time step continuity errors : sum local = 1.32933e-05, global = 1.6834e-14, cumulative = 1.23455e-12
DILUPBiCGStab:  Solving for omega, Initial residual = 0.000625272, Final residual = 7.8512e-12, No Iterations 1
DILUPBiCGStab:  Solving for k, Initial residual = 0.00517263, Final residual = 4.83225e-09, No Iterations 1
ExecutionTime = 72.83 s  ClockTime = 75 s

Courant Number mean: 0.00181158 max: 0.49742
deltaT = 0.00639417
Time = 0.26467

diagonal:  Solving for rho, Initial residual = 0, Final residual = 0, No Iterations 0
PIMPLE: iteration 1
DILUPBiCGStab:  Solving for h, Initial residual = 0.00677587, Final residual = 1.93151e-09, No Iterations 1
DICPCG:  Solving for p_rgh, Initial residual = 0.00561842, Final residual = 5.34841e-05, No Iterations 160
diagonal:  Solving for rho, Initial residual = 0, Final residual = 0, No Iterations 0
time step continuity errors : sum local = 2.15428e-05, global = -1.33724e-14, cumulative = 1.22118e-12
DICPCG:  Solving for p_rgh, Initial residual = 0.000221611, Final residual = 9.62025e-08, No Iterations 227
diagonal:  Solving for rho, Initial residual = 0, Final residual = 0, No Iterations 0
time step continuity errors : sum local = 1.32513e-05, global = -5.94964e-15, cumulative = 1.21523e-12
DILUPBiCGStab:  Solving for omega, Initial residual = 0.000602782, Final residual = 7.8136e-12, No Iterations 1
DILUPBiCGStab:  Solving for k, Initial residual = 0.0050768, Final residual = 4.59162e-09, No Iterations 1
bounding k, min: -0.000221923 max: 0.143792 average: 0.000220596
ExecutionTime = 74.01 s  ClockTime = 76 s

Courant Number mean: 0.00186415 max: 0.496761
deltaT = 0.00645026
Time = 0.27112

diagonal:  Solving for rho, Initial residual = 0, Final residual = 0, No Iterations 0
PIMPLE: iteration 1
DILUPBiCGStab:  Solving for h, Initial residual = 0.00666569, Final residual = 1.91265e-09, No Iterations 1
DICPCG:  Solving for p_rgh, Initial residual = 0.00556516, Final residual = 5.28175e-05, No Iterations 160
diagonal:  Solving for rho, Initial residual = 0, Final residual = 0, No Iterations 0
time step continuity errors : sum local = 2.16053e-05, global = 2.34711e-15, cumulative = 1.21757e-12
DICPCG:  Solving for p_rgh, Initial residual = 0.000219461, Final residual = 9.68691e-08, No Iterations 227
diagonal:  Solving for rho, Initial residual = 0, Final residual = 0, No Iterations 0
time step continuity errors : sum local = 1.32065e-05, global = 5.77694e-15, cumulative = 1.22335e-12
DILUPBiCGStab:  Solving for omega, Initial residual = 0.000581509, Final residual = 7.78129e-12, No Iterations 1
DILUPBiCGStab:  Solving for k, Initial residual = 0.005024, Final residual = 4.44217e-09, No Iterations 1
bounding k, min: -4.01423e-05 max: 0.139838 average: 0.000219388
ExecutionTime = 75.19 s  ClockTime = 77 s

Courant Number mean: 0.0019184 max: 0.495931
deltaT = 0.00650786
Time = 0.277628

diagonal:  Solving for rho, Initial residual = 0, Final residual = 0, No Iterations 0
PIMPLE: iteration 1
DILUPBiCGStab:  Solving for h, Initial residual = 0.00656152, Final residual = 1.89717e-09, No Iterations 1
DICPCG:  Solving for p_rgh, Initial residual = 0.00557678, Final residual = 5.56668e-05, No Iterations 159
diagonal:  Solving for rho, Initial residual = 0, Final residual = 0, No Iterations 0
time step continuity errors : sum local = 2.18342e-05, global = 2.79495e-15, cumulative = 1.22615e-12
DICPCG:  Solving for p_rgh, Initial residual = 0.000218846, Final residual = 9.74259e-08, No Iterations 227
diagonal:  Solving for rho, Initial residual = 0, Final residual = 0, No Iterations 0
time step continuity errors : sum local = 1.31787e-05, global = -5.17926e-15, cumulative = 1.22097e-12
DILUPBiCGStab:  Solving for omega, Initial residual = 0.000561367, Final residual = 7.7548e-12, No Iterations 1
DILUPBiCGStab:  Solving for k, Initial residual = 0.00494716, Final residual = 4.44326e-09, No Iterations 1
bounding k, min: -0.000394138 max: 0.136014 average: 0.000218192
ExecutionTime = 76.37 s  ClockTime = 78 s

Courant Number mean: 0.00197484 max: 0.495492
deltaT = 0.00656702
Time = 0.284195

diagonal:  Solving for rho, Initial residual = 0, Final residual = 0, No Iterations 0
PIMPLE: iteration 1
DILUPBiCGStab:  Solving for h, Initial residual = 0.00646401, Final residual = 1.88078e-09, No Iterations 1
DICPCG:  Solving for p_rgh, Initial residual = 0.00560418, Final residual = 5.55679e-05, No Iterations 159
diagonal:  Solving for rho, Initial residual = 0, Final residual = 0, No Iterations 0
time step continuity errors : sum local = 2.19288e-05, global = 7.40883e-15, cumulative = 1.22838e-12
DICPCG:  Solving for p_rgh, Initial residual = 0.000215982, Final residual = 9.69803e-08, No Iterations 227
diagonal:  Solving for rho, Initial residual = 0, Final residual = 0, No Iterations 0
time step continuity errors : sum local = 1.3167e-05, global = -1.25239e-15, cumulative = 1.22712e-12
DILUPBiCGStab:  Solving for omega, Initial residual = 0.000542267, Final residual = 7.73349e-12, No Iterations 1
DILUPBiCGStab:  Solving for k, Initial residual = 0.00493843, Final residual = 4.21552e-09, No Iterations 1
ExecutionTime = 77.51 s  ClockTime = 79 s

Courant Number mean: 0.00203365 max: 0.495735
deltaT = 0.00662782
Time = 0.290823

diagonal:  Solving for rho, Initial residual = 0, Final residual = 0, No Iterations 0
PIMPLE: iteration 1
DILUPBiCGStab:  Solving for h, Initial residual = 0.00637075, Final residual = 1.86795e-09, No Iterations 1
DICPCG:  Solving for p_rgh, Initial residual = 0.0056258, Final residual = 5.55855e-05, No Iterations 159
diagonal:  Solving for rho, Initial residual = 0, Final residual = 0, No Iterations 0
time step continuity errors : sum local = 2.20746e-05, global = 7.15987e-15, cumulative = 1.23428e-12
DICPCG:  Solving for p_rgh, Initial residual = 0.00021463, Final residual = 9.82638e-08, No Iterations 227
diagonal:  Solving for rho, Initial residual = 0, Final residual = 0, No Iterations 0
time step continuity errors : sum local = 1.31449e-05, global = -7.45029e-15, cumulative = 1.22683e-12
DILUPBiCGStab:  Solving for omega, Initial residual = 0.000524141, Final residual = 7.71815e-12, No Iterations 1
DILUPBiCGStab:  Solving for k, Initial residual = 0.00485676, Final residual = 4.08248e-09, No Iterations 1
bounding k, min: -0.000163886 max: 0.128834 average: 0.000215865
ExecutionTime = 78.69 s  ClockTime = 80 s

Courant Number mean: 0.00209437 max: 0.495635
deltaT = 0.00669035
Time = 0.297513

diagonal:  Solving for rho, Initial residual = 0, Final residual = 0, No Iterations 0
PIMPLE: iteration 1
DILUPBiCGStab:  Solving for h, Initial residual = 0.00628188, Final residual = 1.85486e-09, No Iterations 1
DICPCG:  Solving for p_rgh, Initial residual = 0.00564491, Final residual = 5.49191e-05, No Iterations 159
diagonal:  Solving for rho, Initial residual = 0, Final residual = 0, No Iterations 0
time step continuity errors : sum local = 2.21685e-05, global = -5.13892e-15, cumulative = 1.22169e-12
[...]
deltaT = 0.0120108
Time = 24.7958

diagonal:  Solving for rho, Initial residual = 0, Final residual = 0, No Iterations 0
PIMPLE: iteration 1
DILUPBiCGStab:  Solving for h, Initial residual = 0.00152866, Final residual = 1.35207e-10, No Iterations 2
DICPCG:  Solving for p_rgh, Initial residual = 0.00361306, Final residual = 3.11093e-05, No Iterations 146
diagonal:  Solving for rho, Initial residual = 0, Final residual = 0, No Iterations 0
time step continuity errors : sum local = 1.11346e-05, global = -3.89673e-15, cumulative = 8.61801e-13
DICPCG:  Solving for p_rgh, Initial residual = 9.32207e-05, Final residual = 9.7113e-08, No Iterations 223
diagonal:  Solving for rho, Initial residual = 0, Final residual = 0, No Iterations 0
time step continuity errors : sum local = 3.37113e-06, global = -1.88155e-14, cumulative = 8.42986e-13
DILUPBiCGStab:  Solving for omega, Initial residual = 5.85574e-05, Final residual = 3.57863e-10, No Iterations 1
DILUPBiCGStab:  Solving for k, Initial residual = 0.0012496, Final residual = 1.03715e-10, No Iterations 2
bounding k, min: -4.53065e-06 max: 0.00215352 average: 0.000381095
ExecutionTime = 1979.64 s  ClockTime = 1991 s

Courant Number mean: 0.0560243 max: 0.486968
deltaT = 0.0120108
Time = 24.8078

diagonal:  Solving for rho, Initial residual = 0, Final residual = 0, No Iterations 0
PIMPLE: iteration 1
DILUPBiCGStab:  Solving for h, Initial residual = 0.00152748, Final residual = 1.35718e-10, No Iterations 2
DICPCG:  Solving for p_rgh, Initial residual = 0.0036021, Final residual = 3.58322e-05, No Iterations 146
diagonal:  Solving for rho, Initial residual = 0, Final residual = 0, No Iterations 0
time step continuity errors : sum local = 1.16486e-05, global = 1.31505e-14, cumulative = 8.56136e-13
DICPCG:  Solving for p_rgh, Initial residual = 9.65713e-05, Final residual = 9.75906e-08, No Iterations 223
diagonal:  Solving for rho, Initial residual = 0, Final residual = 0, No Iterations 0
time step continuity errors : sum local = 3.37882e-06, global = 9.71872e-15, cumulative = 8.65855e-13
DILUPBiCGStab:  Solving for omega, Initial residual = 5.84006e-05, Final residual = 3.57355e-10, No Iterations 1
DILUPBiCGStab:  Solving for k, Initial residual = 0.00124777, Final residual = 1.03947e-10, No Iterations 2
bounding k, min: -1.84678e-06 max: 0.00215885 average: 0.000381304
ExecutionTime = 1981.34 s  ClockTime = 1993 s

Courant Number mean: 0.0560173 max: 0.488053
deltaT = 0.0120108
Time = 24.8198

diagonal:  Solving for rho, Initial residual = 0, Final residual = 0, No Iterations 0
PIMPLE: iteration 1
DILUPBiCGStab:  Solving for h, Initial residual = 0.00152617, Final residual = 1.36133e-10, No Iterations 2
DICPCG:  Solving for p_rgh, Initial residual = 0.00359109, Final residual = 3.12203e-05, No Iterations 146
diagonal:  Solving for rho, Initial residual = 0, Final residual = 0, No Iterations 0
time step continuity errors : sum local = 1.11988e-05, global = -3.65457e-15, cumulative = 8.62201e-13
DICPCG:  Solving for p_rgh, Initial residual = 9.33411e-05, Final residual = 9.78244e-08, No Iterations 223
diagonal:  Solving for rho, Initial residual = 0, Final residual = 0, No Iterations 0
time step continuity errors : sum local = 3.38679e-06, global = 9.72061e-15, cumulative = 8.71921e-13
DILUPBiCGStab:  Solving for omega, Initial residual = 5.8207e-05, Final residual = 3.57218e-10, No Iterations 1
DILUPBiCGStab:  Solving for k, Initial residual = 0.00124595, Final residual = 1.04177e-10, No Iterations 2
bounding k, min: -1.13003e-06 max: 0.00216278 average: 0.000381513
ExecutionTime = 1983.2 s  ClockTime = 1995 s

Courant Number mean: 0.0560104 max: 0.489024
deltaT = 0.0120108
Time = 24.8318

diagonal:  Solving for rho, Initial residual = 0, Final residual = 0, No Iterations 0
PIMPLE: iteration 1
DILUPBiCGStab:  Solving for h, Initial residual = 0.00152474, Final residual = 1.36489e-10, No Iterations 2
DICPCG:  Solving for p_rgh, Initial residual = 0.00357943, Final residual = 3.15315e-05, No Iterations 147
diagonal:  Solving for rho, Initial residual = 0, Final residual = 0, No Iterations 0
time step continuity errors : sum local = 1.12223e-05, global = -9.87903e-15, cumulative = 8.62042e-13
DICPCG:  Solving for p_rgh, Initial residual = 9.32182e-05, Final residual = 9.64317e-08, No Iterations 223
diagonal:  Solving for rho, Initial residual = 0, Final residual = 0, No Iterations 0
time step continuity errors : sum local = 3.39456e-06, global = -4.65029e-15, cumulative = 8.57392e-13
DILUPBiCGStab:  Solving for omega, Initial residual = 5.79902e-05, Final residual = 3.57439e-10, No Iterations 1
DILUPBiCGStab:  Solving for k, Initial residual = 0.00124405, Final residual = 1.0445e-10, No Iterations 2
bounding k, min: -1.98915e-06 max: 0.00216534 average: 0.000381722
ExecutionTime = 1985.09 s  ClockTime = 1997 s

Courant Number mean: 0.056003 max: 0.489876
deltaT = 0.0120108
Time = 24.8439

diagonal:  Solving for rho, Initial residual = 0, Final residual = 0, No Iterations 0
PIMPLE: iteration 1
DILUPBiCGStab:  Solving for h, Initial residual = 0.0015234, Final residual = 1.36647e-10, No Iterations 2
DICPCG:  Solving for p_rgh, Initial residual = 0.00356883, Final residual = 3.11778e-05, No Iterations 146
diagonal:  Solving for rho, Initial residual = 0, Final residual = 0, No Iterations 0
time step continuity errors : sum local = 1.12445e-05, global = 3.25052e-15, cumulative = 8.60642e-13
DICPCG:  Solving for p_rgh, Initial residual = 9.3359e-05, Final residual = 9.01295e-08, No Iterations 224
diagonal:  Solving for rho, Initial residual = 0, Final residual = 0, No Iterations 0
time step continuity errors : sum local = 3.40253e-06, global = 9.98526e-15, cumulative = 8.70628e-13
DILUPBiCGStab:  Solving for omega, Initial residual = 5.79092e-05, Final residual = 3.57657e-10, No Iterations 1
DILUPBiCGStab:  Solving for k, Initial residual = 0.00124225, Final residual = 1.04832e-10, No Iterations 2
bounding k, min: -4.04031e-06 max: 0.00216697 average: 0.00038193
ExecutionTime = 1986.96 s  ClockTime = 1999 s

Courant Number mean: 0.0559953 max: 0.490601
deltaT = 0.0120108
Time = 24.8559

diagonal:  Solving for rho, Initial residual = 0, Final residual = 0, No Iterations 0
PIMPLE: iteration 1
DILUPBiCGStab:  Solving for h, Initial residual = 0.00152205, Final residual = 1.36563e-10, No Iterations 2
DICPCG:  Solving for p_rgh, Initial residual = 0.00355744, Final residual = 3.5525e-05, No Iterations 146
diagonal:  Solving for rho, Initial residual = 0, Final residual = 0, No Iterations 0
time step continuity errors : sum local = 1.1721e-05, global = -9.52752e-15, cumulative = 8.611e-13
DICPCG:  Solving for p_rgh, Initial residual = 9.64548e-05, Final residual = 9.84332e-08, No Iterations 223
diagonal:  Solving for rho, Initial residual = 0, Final residual = 0, No Iterations 0
time step continuity errors : sum local = 3.41021e-06, global = -1.13637e-14, cumulative = 8.49736e-13
DILUPBiCGStab:  Solving for omega, Initial residual = 5.77802e-05, Final residual = 3.57414e-10, No Iterations 1
DILUPBiCGStab:  Solving for k, Initial residual = 0.0012405, Final residual = 1.05175e-10, No Iterations 2
bounding k, min: -2.81496e-06 max: 0.00217787 average: 0.000382138
ExecutionTime = 1988.87 s  ClockTime = 2001 s

Courant Number mean: 0.0559884 max: 0.491185
deltaT = 0.0120108
Time = 24.8679

diagonal:  Solving for rho, Initial residual = 0, Final residual = 0, No Iterations 0
PIMPLE: iteration 1
DILUPBiCGStab:  Solving for h, Initial residual = 0.00152065, Final residual = 1.36222e-10, No Iterations 2
DICPCG:  Solving for p_rgh, Initial residual = 0.0035458, Final residual = 3.18464e-05, No Iterations 146
diagonal:  Solving for rho, Initial residual = 0, Final residual = 0, No Iterations 0
time step continuity errors : sum local = 1.13598e-05, global = 5.61269e-15, cumulative = 8.55349e-13
DICPCG:  Solving for p_rgh, Initial residual = 9.38281e-05, Final residual = 9.88231e-08, No Iterations 223
diagonal:  Solving for rho, Initial residual = 0, Final residual = 0, No Iterations 0
time step continuity errors : sum local = 3.41818e-06, global = 8.30996e-15, cumulative = 8.63659e-13
DILUPBiCGStab:  Solving for omega, Initial residual = 5.77227e-05, Final residual = 3.56993e-10, No Iterations 1
bounding omega, min: -0.028566 max: 1075.63 average: 77.5116
DILUPBiCGStab:  Solving for k, Initial residual = 0.0012388, Final residual = 1.0533e-10, No Iterations 2
bounding k, min: -3.73937e-06 max: 0.0021875 average: 0.000382345
ExecutionTime = 1990.74 s  ClockTime = 2002 s

Courant Number mean: 0.0559818 max: 0.491678
deltaT = 0.0120108
Time = 24.8799

diagonal:  Solving for rho, Initial residual = 0, Final residual = 0, No Iterations 0
PIMPLE: iteration 1
DILUPBiCGStab:  Solving for h, Initial residual = 0.0015192, Final residual = 1.35681e-10, No Iterations 2
DICPCG:  Solving for p_rgh, Initial residual = 0.00353546, Final residual = 3.21078e-05, No Iterations 147
diagonal:  Solving for rho, Initial residual = 0, Final residual = 0, No Iterations 0
time step continuity errors : sum local = 1.13905e-05, global = -1.20547e-14, cumulative = 8.51604e-13
DICPCG:  Solving for p_rgh, Initial residual = 9.37392e-05, Final residual = 9.69836e-08, No Iterations 223
diagonal:  Solving for rho, Initial residual = 0, Final residual = 0, No Iterations 0
time step continuity errors : sum local = 3.42594e-06, global = -1.29415e-14, cumulative = 8.38663e-13
DILUPBiCGStab:  Solving for omega, Initial residual = 5.76604e-05, Final residual = 3.56109e-10, No Iterations 1
bounding omega, min: -0.0381378 max: 1075.68 average: 77.5102
DILUPBiCGStab:  Solving for k, Initial residual = 0.00123712, Final residual = 1.05297e-10, No Iterations 2
bounding k, min: -2.58175e-06 max: 0.0021958 average: 0.000382553
ExecutionTime = 1992.94 s  ClockTime = 2005 s

Courant Number mean: 0.0559753 max: 0.492085
deltaT = 0.0120108
Time = 24.8919

diagonal:  Solving for rho, Initial residual = 0, Final residual = 0, No Iterations 0
PIMPLE: iteration 1
DILUPBiCGStab:  Solving for h, Initial residual = 0.00151776, Final residual = 1.34983e-10, No Iterations 2
DICPCG:  Solving for p_rgh, Initial residual = 0.00352682, Final residual = 3.14773e-05, No Iterations 146
diagonal:  Solving for rho, Initial residual = 0, Final residual = 0, No Iterations 0
time step continuity errors : sum local = 1.13656e-05, global = 1.11857e-14, cumulative = 8.49849e-13
DICPCG:  Solving for p_rgh, Initial residual = 9.36126e-05, Final residual = 9.12161e-08, No Iterations 224
diagonal:  Solving for rho, Initial residual = 0, Final residual = 0, No Iterations 0
time step continuity errors : sum local = 3.43403e-06, global = 4.28464e-15, cumulative = 8.54133e-13
DILUPBiCGStab:  Solving for omega, Initial residual = 5.75397e-05, Final residual = 3.55057e-10, No Iterations 1
bounding omega, min: -0.0190906 max: 1075.72 average: 77.5088
DILUPBiCGStab:  Solving for k, Initial residual = 0.00123529, Final residual = 1.0515e-10, No Iterations 2
bounding k, min: -3.8055e-06 max: 0.00220276 average: 0.000382761
ExecutionTime = 1995.28 s  ClockTime = 2007 s

Courant Number mean: 0.0559687 max: 0.49236
deltaT = 0.0120108
Time = 24.9039

diagonal:  Solving for rho, Initial residual = 0, Final residual = 0, No Iterations 0
PIMPLE: iteration 1
DILUPBiCGStab:  Solving for h, Initial residual = 0.00151649, Final residual = 1.3478e-10, No Iterations 2
DICPCG:  Solving for p_rgh, Initial residual = 0.00351856, Final residual = 3.14456e-05, No Iterations 147
diagonal:  Solving for rho, Initial residual = 0, Final residual = 0, No Iterations 0
time step continuity errors : sum local = 1.13754e-05, global = 1.23364e-15, cumulative = 8.55367e-13
DICPCG:  Solving for p_rgh, Initial residual = 9.3367e-05, Final residual = 9.76434e-08, No Iterations 223
diagonal:  Solving for rho, Initial residual = 0, Final residual = 0, No Iterations 0
time step continuity errors : sum local = 3.44173e-06, global = 3.84782e-15, cumulative = 8.59215e-13
DILUPBiCGStab:  Solving for omega, Initial residual = 5.74664e-05, Final residual = 3.54223e-10, No Iterations 1
DILUPBiCGStab:  Solving for k, Initial residual = 0.00123343, Final residual = 1.0495e-10, No Iterations 2
bounding k, min: -1.69031e-06 max: 0.00220837 average: 0.000382969
ExecutionTime = 1997.32 s  ClockTime = 2009 s

Courant Number mean: 0.0559624 max: 0.492503
deltaT = 0.0120108
Time = 24.9159

diagonal:  Solving for rho, Initial residual = 0, Final residual = 0, No Iterations 0
PIMPLE: iteration 1
DILUPBiCGStab:  Solving for h, Initial residual = 0.00151545, Final residual = 1.35146e-10, No Iterations 2
DICPCG:  Solving for p_rgh, Initial residual = 0.00350865, Final residual = 3.19854e-05, No Iterations 146
diagonal:  Solving for rho, Initial residual = 0, Final residual = 0, No Iterations 0
time step continuity errors : sum local = 1.14605e-05, global = 5.0147e-15, cumulative = 8.64229e-13
DICPCG:  Solving for p_rgh, Initial residual = 9.3987e-05, Final residual = 9.11238e-08, No Iterations 224
diagonal:  Solving for rho, Initial residual = 0, Final residual = 0, No Iterations 0
time step continuity errors : sum local = 3.44978e-06, global = -1.56738e-14, cumulative = 8.48556e-13
DILUPBiCGStab:  Solving for omega, Initial residual = 5.73461e-05, Final residual = 3.53326e-10, No Iterations 1
DILUPBiCGStab:  Solving for k, Initial residual = 0.00123178, Final residual = 1.04563e-10, No Iterations 2
bounding k, min: -4.02326e-06 max: 0.00221633 average: 0.000383176
ExecutionTime = 1999.42 s  ClockTime = 2011 s

Courant Number mean: 0.0559557 max: 0.492823
deltaT = 0.0120108
Time = 24.9279

diagonal:  Solving for rho, Initial residual = 0, Final residual = 0, No Iterations 0
PIMPLE: iteration 1
DILUPBiCGStab:  Solving for h, Initial residual = 0.00151425, Final residual = 1.35525e-10, No Iterations 2
DICPCG:  Solving for p_rgh, Initial residual = 0.00349853, Final residual = 3.17965e-05, No Iterations 147
diagonal:  Solving for rho, Initial residual = 0, Final residual = 0, No Iterations 0
time step continuity errors : sum local = 1.1463e-05, global = 9.35269e-15, cumulative = 8.57908e-13
DICPCG:  Solving for p_rgh, Initial residual = 9.36967e-05, Final residual = 9.75311e-08, No Iterations 223
diagonal:  Solving for rho, Initial residual = 0, Final residual = 0, No Iterations 0
time step continuity errors : sum local = 3.45748e-06, global = 1.49224e-14, cumulative = 8.72831e-13
DILUPBiCGStab:  Solving for omega, Initial residual = 5.72727e-05, Final residual = 3.52725e-10, No Iterations 1
bounding omega, min: -0.0362051 max: 1075.86 average: 77.5046
DILUPBiCGStab:  Solving for k, Initial residual = 0.00122988, Final residual = 1.0404e-10, No Iterations 2
bounding k, min: -2.82115e-06 max: 0.00222414 average: 0.000383384
ExecutionTime = 2001.14 s  ClockTime = 2013 s

Courant Number mean: 0.0559485 max: 0.493
deltaT = 0.0120108
Time = 24.9399

diagonal:  Solving for rho, Initial residual = 0, Final residual = 0, No Iterations 0
PIMPLE: iteration 1
DILUPBiCGStab:  Solving for h, Initial residual = 0.00151327, Final residual = 1.35771e-10, No Iterations 2
DICPCG:  Solving for p_rgh, Initial residual = 0.00348746, Final residual = 3.25206e-05, No Iterations 146
diagonal:  Solving for rho, Initial residual = 0, Final residual = 0, No Iterations 0
time step continuity errors : sum local = 1.1559e-05, global = 1.47017e-14, cumulative = 8.87532e-13
DICPCG:  Solving for p_rgh, Initial residual = 9.43634e-05, Final residual = 9.203e-08, No Iterations 224
diagonal:  Solving for rho, Initial residual = 0, Final residual = 0, No Iterations 0
time step continuity errors : sum local = 3.46553e-06, global = -7.4877e-15, cumulative = 8.80045e-13
DILUPBiCGStab:  Solving for omega, Initial residual = 5.72149e-05, Final residual = 3.51962e-10, No Iterations 1
DILUPBiCGStab:  Solving for k, Initial residual = 0.00122799, Final residual = 1.03615e-10, No Iterations 2
bounding k, min: -3.96441e-06 max: 0.00223048 average: 0.000383591
ExecutionTime = 2003.3 s  ClockTime = 2015 s

Courant Number mean: 0.0559408 max: 0.493081
deltaT = 0.0120108
Time = 24.952

diagonal:  Solving for rho, Initial residual = 0, Final residual = 0, No Iterations 0
PIMPLE: iteration 1
DILUPBiCGStab:  Solving for h, Initial residual = 0.00151228, Final residual = 1.3599e-10, No Iterations 2
DICPCG:  Solving for p_rgh, Initial residual = 0.00347603, Final residual = 3.18999e-05, No Iterations 147
diagonal:  Solving for rho, Initial residual = 0, Final residual = 0, No Iterations 0
time step continuity errors : sum local = 1.15244e-05, global = 9.61926e-15, cumulative = 8.89664e-13
DICPCG:  Solving for p_rgh, Initial residual = 9.38728e-05, Final residual = 9.76515e-08, No Iterations 223
diagonal:  Solving for rho, Initial residual = 0, Final residual = 0, No Iterations 0
time step continuity errors : sum local = 3.47335e-06, global = -4.1466e-15, cumulative = 8.85517e-13
DILUPBiCGStab:  Solving for omega, Initial residual = 5.7142e-05, Final residual = 3.51436e-10, No Iterations 1
DILUPBiCGStab:  Solving for k, Initial residual = 0.00122602, Final residual = 1.03587e-10, No Iterations 2
bounding k, min: -3.45829e-06 max: 0.00223532 average: 0.000383798
ExecutionTime = 2005.49 s  ClockTime = 2017 s

Courant Number mean: 0.0559325 max: 0.493001
deltaT = 0.0120108
Time = 24.964

diagonal:  Solving for rho, Initial residual = 0, Final residual = 0, No Iterations 0
PIMPLE: iteration 1
DILUPBiCGStab:  Solving for h, Initial residual = 0.00151115, Final residual = 1.36078e-10, No Iterations 2
DICPCG:  Solving for p_rgh, Initial residual = 0.00346374, Final residual = 3.30237e-05, No Iterations 146
diagonal:  Solving for rho, Initial residual = 0, Final residual = 0, No Iterations 0
time step continuity errors : sum local = 1.16546e-05, global = 2.63776e-15, cumulative = 8.88155e-13
DICPCG:  Solving for p_rgh, Initial residual = 9.47484e-05, Final residual = 9.28111e-08, No Iterations 224
diagonal:  Solving for rho, Initial residual = 0, Final residual = 0, No Iterations 0
time step continuity errors : sum local = 3.48134e-06, global = 6.9232e-15, cumulative = 8.95078e-13
DILUPBiCGStab:  Solving for omega, Initial residual = 5.70014e-05, Final residual = 3.50617e-10, No Iterations 1
DILUPBiCGStab:  Solving for k, Initial residual = 0.00122383, Final residual = 1.03853e-10, No Iterations 2
bounding k, min: -3.60729e-06 max: 0.00223865 average: 0.000384004
ExecutionTime = 2007.74 s  ClockTime = 2019 s

Courant Number mean: 0.0559236 max: 0.492791
deltaT = 0.0120108
Time = 24.976

diagonal:  Solving for rho, Initial residual = 0, Final residual = 0, No Iterations 0
PIMPLE: iteration 1
DILUPBiCGStab:  Solving for h, Initial residual = 0.00150993, Final residual = 1.35919e-10, No Iterations 2
DICPCG:  Solving for p_rgh, Initial residual = 0.00345257, Final residual = 3.21176e-05, No Iterations 147
diagonal:  Solving for rho, Initial residual = 0, Final residual = 0, No Iterations 0
time step continuity errors : sum local = 1.15987e-05, global = 2.98125e-15, cumulative = 8.9806e-13
DICPCG:  Solving for p_rgh, Initial residual = 9.41347e-05, Final residual = 9.74172e-08, No Iterations 223
diagonal:  Solving for rho, Initial residual = 0, Final residual = 0, No Iterations 0
time step continuity errors : sum local = 3.4892e-06, global = 3.53583e-15, cumulative = 9.01595e-13
DILUPBiCGStab:  Solving for omega, Initial residual = 5.68873e-05, Final residual = 3.50027e-10, No Iterations 1
DILUPBiCGStab:  Solving for k, Initial residual = 0.00122177, Final residual = 1.04414e-10, No Iterations 2
bounding k, min: -1.73607e-06 max: 0.00224051 average: 0.000384211
ExecutionTime = 2009.82 s  ClockTime = 2022 s

Courant Number mean: 0.0559139 max: 0.492439
deltaT = 0.0120108
Time = 24.988

diagonal:  Solving for rho, Initial residual = 0, Final residual = 0, No Iterations 0
PIMPLE: iteration 1
DILUPBiCGStab:  Solving for h, Initial residual = 0.00150869, Final residual = 1.35717e-10, No Iterations 2
