/*---------------------------------------------------------------------------*\
| =========                 |                                                 |
| \\      /  F ield         | OpenFOAM: The Open Source CFD Toolbox           |
|  \\    /   O peration     | Version:  v1906                                 |
|   \\  /    A nd           | Web:      www.OpenFOAM.com                      |
|    \\/     M anipulation  |                                                 |
\*---------------------------------------------------------------------------*/
Build  : v1906 OPENFOAM=1906
Arch   : "LSB;label=32;scalar=64"
Exec   : chtMultiRegionFoam
Date   : Apr 02 2020
Time   : 15:16:20
Host   : DESKTOP-9S60IA4
PID    : 2277
I/O    : uncollated
Case   : /home/theodore_ong/GitHub_software/OpenFoam_heatTrf_YouTube/chtMultiregionFoam/hot_sphere_in_oil/exptCaseLES
nProcs : 1
trapFpe: Floating point exception trapping enabled (FOAM_SIGFPE).
fileModificationChecking : Monitoring run-time modified files using timeStampMaster (fileModificationSkew 10)
allowSystemOperations : Allowing user-supplied system call operations

// * * * * * * * * * * * * * * * * * * * * * * * * * * * * * * * * * * * * * //
Create time

Create fluid mesh for region oil for time = 0

Create solid mesh for region sphere for time = 0

*** Reading fluid mesh thermophysical properties for region oil

    Adding to thermoFluid

Selecting thermodynamics package 
{
    type            heRhoThermo;
    mixture         pureMixture;
    transport       polynomial;
    thermo          hPolynomial;
    equationOfState icoPolynomial;
    specie          specie;
    energy          sensibleEnthalpy;
}

    Adding to rhoFluid

    Adding to UFluid

    Adding to phiFluid

    Adding to hRefFluid

    Adding to ghFluid

    Adding to ghfFluid

    Adding to turbulenceFluid

Selecting turbulence model type LES
Selecting LES turbulence model Smagorinsky
Selecting LES delta type cubeRootVol
LES
{
    turbulence      on;
    LESModel        Smagorinsky;
    printCoeffs     on;
    delta           cubeRootVol;
    Prt             0.85;
    Ce              1.048;
    Ck              0.094;
}

    Adding to reactionFluid

Combustion model not active: combustionProperties not found
Selecting combustion model none
    Adding to radiationFluid

Selecting radiationModel none
    Adding to KFluid

    Adding to dpdtFluid

    Adding to fieldsFluid

    Adding to QdotFluid

    Adding MRF

No MRF models present

    Adding fvOptions

*** Reading solid mesh thermophysical properties for region sphere

    Adding to thermos

Selecting thermodynamics package 
{
    type            heSolidThermo;
    mixture         pureMixture;
    transport       polynomial;
    thermo          hPolynomial;
    equationOfState rhoConst;
    specie          specie;
    energy          sensibleEnthalpy;
}

    Adding to radiations

Selecting radiationModel none
    Adding fvOptions

Region: oil Courant Number mean: 0 max: 0
Region: sphere Diffusion Number mean: 0.751965 max: 4.853
wallHeatFlux wallHeatFlux1:
    processing all wall patches

Selecting heat transfer coefficient model fixedReferenceTemperature
surfaceFieldValue avgSphereHeatTrfCoeff:
    operation     = areaAverage


deltaT = 0.01
Region: oil Courant Number mean: 0 max: 0
Region: sphere Diffusion Number mean: 0.751965 max: 4.853
deltaT = 0.01
Time = 0.01


Solving for fluid region oil
diagonal:  Solving for rho, Initial residual = 0, Final residual = 0, No Iterations 0
DILUPBiCGStab:  Solving for Ux, Initial residual = 1, Final residual = 1.22593e-08, No Iterations 1
DILUPBiCGStab:  Solving for Uy, Initial residual = 1, Final residual = 3.21063e-09, No Iterations 1
DILUPBiCGStab:  Solving for Uz, Initial residual = 1, Final residual = 1.17164e-08, No Iterations 1
DILUPBiCGStab:  Solving for h, Initial residual = 1, Final residual = 3.91558e-06, No Iterations 1
Min/max T:300 499.572
GAMG:  Solving for p_rgh, Initial residual = 0.401607, Final residual = 6.25899e-06, No Iterations 23
GAMG:  Solving for p_rgh, Initial residual = 0.84047, Final residual = 8.73752e-06, No Iterations 16
diagonal:  Solving for rho, Initial residual = 0, Final residual = 0, No Iterations 0
time step continuity errors (oil): sum local = 2.80635e-07, global = 2.48789e-07, cumulative = 2.48789e-07

Solving for solid region sphere
DICPCG:  Solving for h, Initial residual = 1, Final residual = 5.81942e-10, No Iterations 13
Min/max T:496.166 500
ExecutionTime = 8.68 s  ClockTime = 8 s

wallHeatFlux wallHeatFlux1 write:
    writing field wallHeatFlux
    min/max/integ(maxY) = 0, 0, 0
    min/max/integ(minX) = 0, 0, 0
    min/max/integ(maxX) = 0, 0, 0
    min/max/integ(minY) = 0, 0, 0
    min/max/integ(minZ) = 0, 0, 0
    min/max/integ(maxZ) = 0, 0, 0
    min/max/integ(oil_to_sphere) = 429092, 1.96551e+06, 3775.37
    functionObjects::heatTransferCoeff sphereHeatTrfCoeff writing field: heatTransferCoeff(T)
surfaceFieldValue avgSphereHeatTrfCoeff write:
    total faces   = 1536
    total area    = 0.00281729

    areaAverage(oil_to_sphere) of heatTransferCoeff(T) = -6714.94
    areaAverage(oil_to_sphere) of T = 499.565

Region: oil Courant Number mean: 0.000677747 max: 0.191746
Region: sphere Diffusion Number mean: 0.75219 max: 4.85516
deltaT = 0.001
Time = 0.011


Solving for fluid region oil
diagonal:  Solving for rho, Initial residual = 0, Final residual = 0, No Iterations 0
DILUPBiCGStab:  Solving for Ux, Initial residual = 0.0542684, Final residual = 1.16978e-07, No Iterations 1
DILUPBiCGStab:  Solving for Uy, Initial residual = 0.008124, Final residual = 1.58327e-08, No Iterations 1
DILUPBiCGStab:  Solving for Uz, Initial residual = 0.0545583, Final residual = 1.16619e-07, No Iterations 1
DILUPBiCGStab:  Solving for h, Initial residual = 0.00104815, Final residual = 2.60337e-09, No Iterations 1
Min/max T:300 498.422
GAMG:  Solving for p_rgh, Initial residual = 0.702859, Final residual = 9.29132e-06, No Iterations 18
GAMG:  Solving for p_rgh, Initial residual = 0.0544409, Final residual = 8.40539e-06, No Iterations 14
diagonal:  Solving for rho, Initial residual = 0, Final residual = 0, No Iterations 0
time step continuity errors (oil): sum local = 8.2665e-08, global = 8.25612e-08, cumulative = 3.3135e-07

Solving for solid region sphere
DICPCG:  Solving for h, Initial residual = 0.0407655, Final residual = 2.98415e-11, No Iterations 5
Min/max T:493.768 500
ExecutionTime = 11.11 s  ClockTime = 11 s

Region: oil Courant Number mean: 6.40554e-05 max: 0.018264
Region: sphere Diffusion Number mean: 0.0752211 max: 0.486057
deltaT = 0.001125
Time = 0.012125


Solving for fluid region oil
diagonal:  Solving for rho, Initial residual = 0, Final residual = 0, No Iterations 0
DILUPBiCGStab:  Solving for Ux, Initial residual = 0.111732, Final residual = 9.45316e-08, No Iterations 1
DILUPBiCGStab:  Solving for Uy, Initial residual = 0.00987411, Final residual = 1.48124e-08, No Iterations 1
DILUPBiCGStab:  Solving for Uz, Initial residual = 0.111101, Final residual = 9.39936e-08, No Iterations 1
DILUPBiCGStab:  Solving for h, Initial residual = 0.0010615, Final residual = 2.64943e-09, No Iterations 1
Min/max T:300 498.442
GAMG:  Solving for p_rgh, Initial residual = 0.286491, Final residual = 6.65128e-06, No Iterations 19
GAMG:  Solving for p_rgh, Initial residual = 0.0410768, Final residual = 7.73381e-06, No Iterations 14
diagonal:  Solving for rho, Initial residual = 0, Final residual = 0, No Iterations 0
time step continuity errors (oil): sum local = 1.11563e-07, global = 1.11482e-07, cumulative = 4.42833e-07

Solving for solid region sphere
DICPCG:  Solving for h, Initial residual = 0.0408819, Final residual = 7.16663e-11, No Iterations 5
Min/max T:493.526 500
ExecutionTime = 13.62 s  ClockTime = 13 s

Region: oil Courant Number mean: 7.10649e-05 max: 0.0195178
Region: sphere Diffusion Number mean: 0.0846263 max: 0.546876
deltaT = 0.001125
Time = 0.01325


Solving for fluid region oil
diagonal:  Solving for rho, Initial residual = 0, Final residual = 0, No Iterations 0
DILUPBiCGStab:  Solving for Ux, Initial residual = 0.0320441, Final residual = 2.36472e-08, No Iterations 1
DILUPBiCGStab:  Solving for Uy, Initial residual = 0.00257836, Final residual = 3.66975e-09, No Iterations 1
DILUPBiCGStab:  Solving for Uz, Initial residual = 0.0319367, Final residual = 2.34653e-08, No Iterations 1
DILUPBiCGStab:  Solving for h, Initial residual = 0.000741238, Final residual = 1.95549e-09, No Iterations 1
Min/max T:300 498.383
GAMG:  Solving for p_rgh, Initial residual = 0.125874, Final residual = 5.23897e-06, No Iterations 14
GAMG:  Solving for p_rgh, Initial residual = 0.0122026, Final residual = 7.81154e-06, No Iterations 8
diagonal:  Solving for rho, Initial residual = 0, Final residual = 0, No Iterations 0
time step continuity errors (oil): sum local = 6.65874e-08, global = 6.65166e-08, cumulative = 5.09349e-07

Solving for solid region sphere
DICPCG:  Solving for h, Initial residual = 0.0371614, Final residual = 6.48477e-11, No Iterations 5
Min/max T:493.266 500
ExecutionTime = 15.38 s  ClockTime = 15 s

Region: oil Courant Number mean: 6.92259e-05 max: 0.0188727
Region: sphere Diffusion Number mean: 0.0846288 max: 0.54695
deltaT = 0.001125
Time = 0.014375


Solving for fluid region oil
diagonal:  Solving for rho, Initial residual = 0, Final residual = 0, No Iterations 0
DILUPBiCGStab:  Solving for Ux, Initial residual = 0.0517027, Final residual = 2.17443e-08, No Iterations 1
DILUPBiCGStab:  Solving for Uy, Initial residual = 0.00472585, Final residual = 2.84903e-09, No Iterations 1
DILUPBiCGStab:  Solving for Uz, Initial residual = 0.0516123, Final residual = 2.16582e-08, No Iterations 1
DILUPBiCGStab:  Solving for h, Initial residual = 0.00064969, Final residual = 1.58539e-09, No Iterations 1
Min/max T:300 498.301
GAMG:  Solving for p_rgh, Initial residual = 0.0934722, Final residual = 6.95775e-06, No Iterations 16
GAMG:  Solving for p_rgh, Initial residual = 0.00693349, Final residual = 7.99294e-06, No Iterations 8
diagonal:  Solving for rho, Initial residual = 0, Final residual = 0, No Iterations 0
time step continuity errors (oil): sum local = 5.86474e-08, global = 5.85804e-08, cumulative = 5.6793e-07

Solving for solid region sphere
DICPCG:  Solving for h, Initial residual = 0.0341677, Final residual = 5.95224e-11, No Iterations 5
Min/max T:493.03 500
ExecutionTime = 17.43 s  ClockTime = 17 s

Region: oil Courant Number mean: 6.86512e-05 max: 0.0184073
Region: sphere Diffusion Number mean: 0.0846313 max: 0.547016
deltaT = 0.001125
Time = 0.0155


Solving for fluid region oil
diagonal:  Solving for rho, Initial residual = 0, Final residual = 0, No Iterations 0
DILUPBiCGStab:  Solving for Ux, Initial residual = 0.0170011, Final residual = 1.38716e-08, No Iterations 1
DILUPBiCGStab:  Solving for Uy, Initial residual = 0.0012868, Final residual = 2.12011e-09, No Iterations 1
DILUPBiCGStab:  Solving for Uz, Initial residual = 0.0169396, Final residual = 1.37956e-08, No Iterations 1
DILUPBiCGStab:  Solving for h, Initial residual = 0.00048538, Final residual = 1.30151e-09, No Iterations 1
Min/max T:300 498.219
GAMG:  Solving for p_rgh, Initial residual = 0.0747503, Final residual = 7.59168e-06, No Iterations 14
GAMG:  Solving for p_rgh, Initial residual = 0.00597897, Final residual = 9.39179e-06, No Iterations 7
diagonal:  Solving for rho, Initial residual = 0, Final residual = 0, No Iterations 0
time step continuity errors (oil): sum local = 8.76345e-08, global = 8.75597e-08, cumulative = 6.55489e-07

Solving for solid region sphere
DICPCG:  Solving for h, Initial residual = 0.0316784, Final residual = 5.52093e-11, No Iterations 5
Min/max T:492.816 500
ExecutionTime = 19.4 s  ClockTime = 19 s

Region: oil Courant Number mean: 6.91189e-05 max: 0.0180516
Region: sphere Diffusion Number mean: 0.0846338 max: 0.547076
deltaT = 0.001125
Time = 0.016625


Solving for fluid region oil
diagonal:  Solving for rho, Initial residual = 0, Final residual = 0, No Iterations 0
DILUPBiCGStab:  Solving for Ux, Initial residual = 0.0323927, Final residual = 1.56097e-08, No Iterations 1
DILUPBiCGStab:  Solving for Uy, Initial residual = 0.00291741, Final residual = 1.98775e-09, No Iterations 1
DILUPBiCGStab:  Solving for Uz, Initial residual = 0.0323403, Final residual = 1.55679e-08, No Iterations 1
DILUPBiCGStab:  Solving for h, Initial residual = 0.000435814, Final residual = 1.11733e-09, No Iterations 1
Min/max T:300 498.144
GAMG:  Solving for p_rgh, Initial residual = 0.0657029, Final residual = 7.1819e-06, No Iterations 16
GAMG:  Solving for p_rgh, Initial residual = 0.0044878, Final residual = 9.22757e-06, No Iterations 7
diagonal:  Solving for rho, Initial residual = 0, Final residual = 0, No Iterations 0
time step continuity errors (oil): sum local = 8.94148e-08, global = 8.93429e-08, cumulative = 7.44832e-07

Solving for solid region sphere
DICPCG:  Solving for h, Initial residual = 0.029521, Final residual = 5.15377e-11, No Iterations 5
Min/max T:492.625 500
ExecutionTime = 21.4 s  ClockTime = 21 s

Region: oil Courant Number mean: 6.89629e-05 max: 0.0177504
Region: sphere Diffusion Number mean: 0.0846363 max: 0.547131
deltaT = 0.001125
Time = 0.01775


Solving for fluid region oil
diagonal:  Solving for rho, Initial residual = 0, Final residual = 0, No Iterations 0
DILUPBiCGStab:  Solving for Ux, Initial residual = 0.00885121, Final residual = 1.10978e-08, No Iterations 1
DILUPBiCGStab:  Solving for Uy, Initial residual = 0.000510561, Final residual = 1.77016e-09, No Iterations 1
DILUPBiCGStab:  Solving for Uz, Initial residual = 0.0088279, Final residual = 1.11077e-08, No Iterations 1
DILUPBiCGStab:  Solving for h, Initial residual = 0.000365515, Final residual = 9.62131e-10, No Iterations 1
Min/max T:300 498.069
GAMG:  Solving for p_rgh, Initial residual = 0.0551145, Final residual = 6.59806e-06, No Iterations 12
GAMG:  Solving for p_rgh, Initial residual = 0.00367009, Final residual = 6.7126e-06, No Iterations 7
diagonal:  Solving for rho, Initial residual = 0, Final residual = 0, No Iterations 0
time step continuity errors (oil): sum local = 6.88091e-08, global = 6.87582e-08, cumulative = 8.1359e-07

Solving for solid region sphere
DICPCG:  Solving for h, Initial residual = 0.0276275, Final residual = 4.83536e-11, No Iterations 5
Min/max T:492.456 500
ExecutionTime = 23.29 s  ClockTime = 23 s

Region: oil Courant Number mean: 6.82617e-05 max: 0.0174814
Region: sphere Diffusion Number mean: 0.0846387 max: 0.547181
deltaT = 0.001125
Time = 0.018875


Solving for fluid region oil
diagonal:  Solving for rho, Initial residual = 0, Final residual = 0, No Iterations 0
DILUPBiCGStab:  Solving for Ux, Initial residual = 0.0242451, Final residual = 1.38276e-08, No Iterations 1
DILUPBiCGStab:  Solving for Uy, Initial residual = 0.00213846, Final residual = 1.90816e-09, No Iterations 1
DILUPBiCGStab:  Solving for Uz, Initial residual = 0.0242065, Final residual = 1.38654e-08, No Iterations 1
DILUPBiCGStab:  Solving for h, Initial residual = 0.000326654, Final residual = 8.43916e-10, No Iterations 1
Min/max T:300 497.994
GAMG:  Solving for p_rgh, Initial residual = 0.0515081, Final residual = 7.39429e-06, No Iterations 15
GAMG:  Solving for p_rgh, Initial residual = 0.0030464, Final residual = 6.8226e-06, No Iterations 7
diagonal:  Solving for rho, Initial residual = 0, Final residual = 0, No Iterations 0
time step continuity errors (oil): sum local = 6.72335e-08, global = 6.71822e-08, cumulative = 8.80773e-07

Solving for solid region sphere
DICPCG:  Solving for h, Initial residual = 0.025974, Final residual = 4.55691e-11, No Iterations 5
Min/max T:492.305 500
ExecutionTime = 25.16 s  ClockTime = 25 s

Region: oil Courant Number mean: 6.80705e-05 max: 0.0172474
Region: sphere Diffusion Number mean: 0.0846411 max: 0.547227
deltaT = 0.001125
Time = 0.02


Solving for fluid region oil
diagonal:  Solving for rho, Initial residual = 0, Final residual = 0, No Iterations 0
DILUPBiCGStab:  Solving for Ux, Initial residual = 0.00719402, Final residual = 1.05019e-08, No Iterations 1
DILUPBiCGStab:  Solving for Uy, Initial residual = 0.000440517, Final residual = 1.65124e-09, No Iterations 1
DILUPBiCGStab:  Solving for Uz, Initial residual = 0.00717687, Final residual = 1.05331e-08, No Iterations 1
DILUPBiCGStab:  Solving for h, Initial residual = 0.000285629, Final residual = 7.44637e-10, No Iterations 1
Min/max T:300 497.922
GAMG:  Solving for p_rgh, Initial residual = 0.0440833, Final residual = 6.65672e-06, No Iterations 11
GAMG:  Solving for p_rgh, Initial residual = 0.00219179, Final residual = 6.23555e-06, No Iterations 6
diagonal:  Solving for rho, Initial residual = 0, Final residual = 0, No Iterations 0
time step continuity errors (oil): sum local = 7.85149e-08, global = 7.84679e-08, cumulative = 9.59241e-07

Solving for solid region sphere
DICPCG:  Solving for h, Initial residual = 0.0245129, Final residual = 4.31205e-11, No Iterations 5
Min/max T:492.17 500
ExecutionTime = 29.15 s  ClockTime = 29 s

wallHeatFlux wallHeatFlux1 write:
    writing field wallHeatFlux
    min/max/integ(maxY) = 0, 0, 0
    min/max/integ(minX) = 0, 0, 0
    min/max/integ(maxX) = 0, 0, 0
    min/max/integ(minY) = 0, 0, 0
    min/max/integ(minZ) = 0, 0, 0
    min/max/integ(maxZ) = 0, 0, 0
    min/max/integ(oil_to_sphere) = 318849, 1.58933e+06, 2885.95
    functionObjects::heatTransferCoeff sphereHeatTrfCoeff writing field: heatTransferCoeff(T)
surfaceFieldValue avgSphereHeatTrfCoeff write:
    areaAverage(oil_to_sphere) of heatTransferCoeff(T) = -5281.72
    areaAverage(oil_to_sphere) of T = 494.204

Region: oil Courant Number mean: 6.82211e-05 max: 0.0170419
Region: sphere Diffusion Number mean: 0.0846434 max: 0.547269
deltaT = 0.00125
Time = 0.02125


Solving for fluid region oil
diagonal:  Solving for rho, Initial residual = 0, Final residual = 0, No Iterations 0
DILUPBiCGStab:  Solving for Ux, Initial residual = 0.0159269, Final residual = 1.62154e-08, No Iterations 1
DILUPBiCGStab:  Solving for Uy, Initial residual = 0.00132456, Final residual = 2.27161e-09, No Iterations 1
DILUPBiCGStab:  Solving for Uz, Initial residual = 0.0159088, Final residual = 1.62699e-08, No Iterations 1
DILUPBiCGStab:  Solving for h, Initial residual = 0.000285295, Final residual = 9.07215e-10, No Iterations 1
Min/max T:300 497.855
GAMG:  Solving for p_rgh, Initial residual = 0.0621249, Final residual = 5.72914e-06, No Iterations 12
GAMG:  Solving for p_rgh, Initial residual = 0.00254444, Final residual = 8.4218e-06, No Iterations 6
diagonal:  Solving for rho, Initial residual = 0, Final residual = 0, No Iterations 0
time step continuity errors (oil): sum local = 8.46266e-08, global = 8.45529e-08, cumulative = 1.04379e-06

Solving for solid region sphere
DICPCG:  Solving for h, Initial residual = 0.0256187, Final residual = 9.54269e-11, No Iterations 5
Min/max T:492.056 500
ExecutionTime = 31.03 s  ClockTime = 31 s

Region: oil Courant Number mean: 7.55942e-05 max: 0.0187395
Region: sphere Diffusion Number mean: 0.0940511 max: 0.60812
deltaT = 0.00125
Time = 0.0225


Solving for fluid region oil
diagonal:  Solving for rho, Initial residual = 0, Final residual = 0, No Iterations 0
DILUPBiCGStab:  Solving for Ux, Initial residual = 0.00651555, Final residual = 1.39492e-08, No Iterations 1
DILUPBiCGStab:  Solving for Uy, Initial residual = 0.000434159, Final residual = 2.20564e-09, No Iterations 1
DILUPBiCGStab:  Solving for Uz, Initial residual = 0.00650177, Final residual = 1.40265e-08, No Iterations 1
DILUPBiCGStab:  Solving for h, Initial residual = 0.000255392, Final residual = 8.05746e-10, No Iterations 1
Min/max T:300 497.781
GAMG:  Solving for p_rgh, Initial residual = 0.0375255, Final residual = 8.95595e-06, No Iterations 11
GAMG:  Solving for p_rgh, Initial residual = 0.00120416, Final residual = 7.75076e-06, No Iterations 5
diagonal:  Solving for rho, Initial residual = 0, Final residual = 0, No Iterations 0
time step continuity errors (oil): sum local = 7.43587e-08, global = 7.42895e-08, cumulative = 1.11808e-06

Solving for solid region sphere
DICPCG:  Solving for h, Initial residual = 0.0241728, Final residual = 9.01375e-11, No Iterations 5
Min/max T:491.941 500
ExecutionTime = 32.87 s  ClockTime = 33 s

Region: oil Courant Number mean: 7.52073e-05 max: 0.01857
Region: sphere Diffusion Number mean: 0.0940539 max: 0.608163
deltaT = 0.00125
Time = 0.02375


Solving for fluid region oil
diagonal:  Solving for rho, Initial residual = 0, Final residual = 0, No Iterations 0
DILUPBiCGStab:  Solving for Ux, Initial residual = 0.0120837, Final residual = 1.48239e-08, No Iterations 1
DILUPBiCGStab:  Solving for Uy, Initial residual = 0.00102174, Final residual = 2.22174e-09, No Iterations 1
DILUPBiCGStab:  Solving for Uz, Initial residual = 0.0120593, Final residual = 1.49076e-08, No Iterations 1
DILUPBiCGStab:  Solving for h, Initial residual = 0.000228092, Final residual = 7.19035e-10, No Iterations 1
Min/max T:300 497.707
GAMG:  Solving for p_rgh, Initial residual = 0.0354318, Final residual = 6.99586e-06, No Iterations 14
GAMG:  Solving for p_rgh, Initial residual = 0.00137075, Final residual = 9.15848e-06, No Iterations 5
diagonal:  Solving for rho, Initial residual = 0, Final residual = 0, No Iterations 0
time step continuity errors (oil): sum local = 7.42767e-08, global = 7.41936e-08, cumulative = 1.19228e-06

Solving for solid region sphere
DICPCG:  Solving for h, Initial residual = 0.0228787, Final residual = 8.53939e-11, No Iterations 5
Min/max T:491.842 499.999
ExecutionTime = 34.61 s  ClockTime = 35 s

Region: oil Courant Number mean: 7.50841e-05 max: 0.0184112
Region: sphere Diffusion Number mean: 0.0940566 max: 0.608203
deltaT = 0.00125
Time = 0.025


Solving for fluid region oil
diagonal:  Solving for rho, Initial residual = 0, Final residual = 0, No Iterations 0
DILUPBiCGStab:  Solving for Ux, Initial residual = 0.00443694, Final residual = 1.30556e-08, No Iterations 1
DILUPBiCGStab:  Solving for Uy, Initial residual = 0.000236693, Final residual = 2.09164e-09, No Iterations 1
DILUPBiCGStab:  Solving for Uz, Initial residual = 0.00442277, Final residual = 1.31265e-08, No Iterations 1
DILUPBiCGStab:  Solving for h, Initial residual = 0.00020913, Final residual = 6.48062e-10, No Iterations 1
Min/max T:300 497.638
GAMG:  Solving for p_rgh, Initial residual = 0.0313452, Final residual = 9.31934e-06, No Iterations 10
GAMG:  Solving for p_rgh, Initial residual = 0.000621113, Final residual = 7.6932e-06, No Iterations 4
diagonal:  Solving for rho, Initial residual = 0, Final residual = 0, No Iterations 0
time step continuity errors (oil): sum local = 7.70492e-08, global = 7.69782e-08, cumulative = 1.26925e-06

Solving for solid region sphere
DICPCG:  Solving for h, Initial residual = 0.0217096, Final residual = 8.10945e-11, No Iterations 5
Min/max T:491.737 499.999
ExecutionTime = 36.07 s  ClockTime = 36 s

Region: oil Courant Number mean: 7.50407e-05 max: 0.0182601
Region: sphere Diffusion Number mean: 0.0940593 max: 0.60824
deltaT = 0.00125
Time = 0.02625


Solving for fluid region oil
diagonal:  Solving for rho, Initial residual = 0, Final residual = 0, No Iterations 0
DILUPBiCGStab:  Solving for Ux, Initial residual = 0.00558216, Final residual = 1.28833e-08, No Iterations 1
DILUPBiCGStab:  Solving for Uy, Initial residual = 0.000368659, Final residual = 2.04085e-09, No Iterations 1
DILUPBiCGStab:  Solving for Uz, Initial residual = 0.00556878, Final residual = 1.2958e-08, No Iterations 1
DILUPBiCGStab:  Solving for h, Initial residual = 0.000188889, Final residual = 5.84868e-10, No Iterations 1
Min/max T:300 497.57
GAMG:  Solving for p_rgh, Initial residual = 0.0292273, Final residual = 6.72915e-06, No Iterations 9
GAMG:  Solving for p_rgh, Initial residual = 0.0008319, Final residual = 5.06661e-06, No Iterations 5
diagonal:  Solving for rho, Initial residual = 0, Final residual = 0, No Iterations 0
time step continuity errors (oil): sum local = 7.38526e-08, global = 7.38041e-08, cumulative = 1.34306e-06

Solving for solid region sphere
DICPCG:  Solving for h, Initial residual = 0.0206429, Final residual = 7.71221e-11, No Iterations 5
Min/max T:491.644 499.999
ExecutionTime = 37.98 s  ClockTime = 38 s

Region: oil Courant Number mean: 7.4856e-05 max: 0.0181127
Region: sphere Diffusion Number mean: 0.0940619 max: 0.608273
deltaT = 0.00125
Time = 0.0275


Solving for fluid region oil
diagonal:  Solving for rho, Initial residual = 0, Final residual = 0, No Iterations 0
DILUPBiCGStab:  Solving for Ux, Initial residual = 0.00568148, Final residual = 1.25582e-08, No Iterations 1
DILUPBiCGStab:  Solving for Uy, Initial residual = 0.00041183, Final residual = 2.03311e-09, No Iterations 1
DILUPBiCGStab:  Solving for Uz, Initial residual = 0.00566616, Final residual = 1.26364e-08, No Iterations 1
DILUPBiCGStab:  Solving for h, Initial residual = 0.000175649, Final residual = 5.32494e-10, No Iterations 1
Min/max T:300 497.504
GAMG:  Solving for p_rgh, Initial residual = 0.0269213, Final residual = 7.22054e-06, No Iterations 8
GAMG:  Solving for p_rgh, Initial residual = 0.000354629, Final residual = 6.49446e-06, No Iterations 3
diagonal:  Solving for rho, Initial residual = 0, Final residual = 0, No Iterations 0
time step continuity errors (oil): sum local = 6.98559e-08, global = 6.97933e-08, cumulative = 1.41285e-06

Solving for solid region sphere
DICPCG:  Solving for h, Initial residual = 0.0196665, Final residual = 7.34233e-11, No Iterations 5
Min/max T:491.564 499.999
ExecutionTime = 39.6 s  ClockTime = 40 s

Region: oil Courant Number mean: 7.46566e-05 max: 0.0179693
Region: sphere Diffusion Number mean: 0.0940645 max: 0.608303
deltaT = 0.00125
Time = 0.02875


Solving for fluid region oil
diagonal:  Solving for rho, Initial residual = 0, Final residual = 0, No Iterations 0
DILUPBiCGStab:  Solving for Ux, Initial residual = 0.00615768, Final residual = 1.23509e-08, No Iterations 1
DILUPBiCGStab:  Solving for Uy, Initial residual = 0.000472445, Final residual = 2.0066e-09, No Iterations 1
DILUPBiCGStab:  Solving for Uz, Initial residual = 0.00613904, Final residual = 1.24271e-08, No Iterations 1
DILUPBiCGStab:  Solving for h, Initial residual = 0.000160383, Final residual = 4.84395e-10, No Iterations 1
Min/max T:300 497.44
GAMG:  Solving for p_rgh, Initial residual = 0.0251838, Final residual = 7.34492e-06, No Iterations 11
GAMG:  Solving for p_rgh, Initial residual = 0.000517851, Final residual = 7.15228e-06, No Iterations 4
diagonal:  Solving for rho, Initial residual = 0, Final residual = 0, No Iterations 0
time step continuity errors (oil): sum local = 6.92203e-08, global = 6.91491e-08, cumulative = 1.482e-06

Solving for solid region sphere
DICPCG:  Solving for h, Initial residual = 0.0187703, Final residual = 6.99888e-11, No Iterations 5
Min/max T:491.496 499.999
ExecutionTime = 41.22 s  ClockTime = 41 s

Region: oil Courant Number mean: 7.45444e-05 max: 0.0178305
Region: sphere Diffusion Number mean: 0.094067 max: 0.60833
deltaT = 0.00125
Time = 0.03


Solving for fluid region oil
diagonal:  Solving for rho, Initial residual = 0, Final residual = 0, No Iterations 0
DILUPBiCGStab:  Solving for Ux, Initial residual = 0.0036475, Final residual = 1.1641e-08, No Iterations 1
DILUPBiCGStab:  Solving for Uy, Initial residual = 0.000215094, Final residual = 1.95668e-09, No Iterations 1
DILUPBiCGStab:  Solving for Uz, Initial residual = 0.00363227, Final residual = 1.17122e-08, No Iterations 1
DILUPBiCGStab:  Solving for h, Initial residual = 0.000149979, Final residual = 4.44037e-10, No Iterations 1
Min/max T:300 497.377
GAMG:  Solving for p_rgh, Initial residual = 0.0230512, Final residual = 5.86677e-06, No Iterations 7
GAMG:  Solving for p_rgh, Initial residual = 0.000243715, Final residual = 5.61751e-06, No Iterations 2
diagonal:  Solving for rho, Initial residual = 0, Final residual = 0, No Iterations 0
time step continuity errors (oil): sum local = 6.85824e-08, global = 6.85258e-08, cumulative = 1.55053e-06

Solving for solid region sphere
DICPCG:  Solving for h, Initial residual = 0.0179427, Final residual = 6.67926e-11, No Iterations 5
Min/max T:491.44 499.999
ExecutionTime = 44.98 s  ClockTime = 45 s

wallHeatFlux wallHeatFlux1 write:
    writing field wallHeatFlux
    min/max/integ(maxY) = 0, 0, 0
    min/max/integ(minX) = 0, 0, 0
    min/max/integ(maxX) = 0, 0, 0
    min/max/integ(minY) = 0, 0, 0
    min/max/integ(minZ) = 0, 0, 0
    min/max/integ(maxZ) = 0, 0, 0
    min/max/integ(oil_to_sphere) = 299078, 1.28285e+06, 2391.79
    functionObjects::heatTransferCoeff sphereHeatTrfCoeff writing field: heatTransferCoeff(T)
surfaceFieldValue avgSphereHeatTrfCoeff write:
    areaAverage(oil_to_sphere) of heatTransferCoeff(T) = -4393.83
    areaAverage(oil_to_sphere) of T = 493.441

Region: oil Courant Number mean: 7.4437e-05 max: 0.0176951
Region: sphere Diffusion Number mean: 0.0940695 max: 0.608354
deltaT = 0.00142857
Time = 0.0314286


Solving for fluid region oil
diagonal:  Solving for rho, Initial residual = 0, Final residual = 0, No Iterations 0
DILUPBiCGStab:  Solving for Ux, Initial residual = 0.00395718, Final residual = 1.79473e-08, No Iterations 1
DILUPBiCGStab:  Solving for Uy, Initial residual = 0.000235646, Final residual = 2.98793e-09, No Iterations 1
DILUPBiCGStab:  Solving for Uz, Initial residual = 0.00394043, Final residual = 1.80645e-08, No Iterations 1
DILUPBiCGStab:  Solving for h, Initial residual = 0.000158042, Final residual = 6.031e-10, No Iterations 1
Min/max T:300 497.315
GAMG:  Solving for p_rgh, Initial residual = 0.0392022, Final residual = 8.19487e-06, No Iterations 8
GAMG:  Solving for p_rgh, Initial residual = 0.000553783, Final residual = 9.09013e-06, No Iterations 3
diagonal:  Solving for rho, Initial residual = 0, Final residual = 0, No Iterations 0
time step continuity errors (oil): sum local = 7.5318e-08, global = 7.52018e-08, cumulative = 1.62573e-06

Solving for solid region sphere
DICPCG:  Solving for h, Initial residual = 0.0194686, Final residual = 1.81037e-10, No Iterations 5
Min/max T:491.402 499.999
ExecutionTime = 46.65 s  ClockTime = 47 s

Region: oil Courant Number mean: 8.48866e-05 max: 0.0200516
Region: sphere Diffusion Number mean: 0.107511 max: 0.695286
deltaT = 0.00142857
Time = 0.0328571


Solving for fluid region oil
diagonal:  Solving for rho, Initial residual = 0, Final residual = 0, No Iterations 0
DILUPBiCGStab:  Solving for Ux, Initial residual = 0.00476291, Final residual = 1.74108e-08, No Iterations 1
DILUPBiCGStab:  Solving for Uy, Initial residual = 0.000356925, Final residual = 2.94054e-09, No Iterations 1
DILUPBiCGStab:  Solving for Uz, Initial residual = 0.0047442, Final residual = 1.75309e-08, No Iterations 1
DILUPBiCGStab:  Solving for h, Initial residual = 0.000146854, Final residual = 5.49323e-10, No Iterations 1
Min/max T:300 497.247
GAMG:  Solving for p_rgh, Initial residual = 0.0217673, Final residual = 5.82585e-06, No Iterations 7
GAMG:  Solving for p_rgh, Initial residual = 0.000196835, Final residual = 5.42896e-06, No Iterations 2
diagonal:  Solving for rho, Initial residual = 0, Final residual = 0, No Iterations 0
time step continuity errors (oil): sum local = 7.25623e-08, global = 7.24912e-08, cumulative = 1.69822e-06

Solving for solid region sphere
DICPCG:  Solving for h, Initial residual = 0.0185528, Final residual = 1.72207e-10, No Iterations 5
Min/max T:491.363 499.999
ExecutionTime = 48.1 s  ClockTime = 48 s

Region: oil Courant Number mean: 8.47164e-05 max: 0.0199477
Region: sphere Diffusion Number mean: 0.107514 max: 0.695311
deltaT = 0.00142857
Time = 0.0342857


Solving for fluid region oil
diagonal:  Solving for rho, Initial residual = 0, Final residual = 0, No Iterations 0
DILUPBiCGStab:  Solving for Ux, Initial residual = 0.00438733, Final residual = 1.67884e-08, No Iterations 1
DILUPBiCGStab:  Solving for Uy, Initial residual = 0.00032696, Final residual = 2.89318e-09, No Iterations 1
DILUPBiCGStab:  Solving for Uz, Initial residual = 0.00437863, Final residual = 1.69132e-08, No Iterations 1
DILUPBiCGStab:  Solving for h, Initial residual = 0.000135514, Final residual = 5.00717e-10, No Iterations 1
Min/max T:300 497.179
GAMG:  Solving for p_rgh, Initial residual = 0.0202288, Final residual = 7.53768e-06, No Iterations 8
GAMG:  Solving for p_rgh, Initial residual = 0.000209532, Final residual = 9.40104e-06, No Iterations 2
diagonal:  Solving for rho, Initial residual = 0, Final residual = 0, No Iterations 0
time step continuity errors (oil): sum local = 7.08573e-08, global = 7.07304e-08, cumulative = 1.76895e-06

Solving for solid region sphere
DICPCG:  Solving for h, Initial residual = 0.0177044, Final residual = 1.64062e-10, No Iterations 5
Min/max T:491.334 499.998
ExecutionTime = 49.4 s  ClockTime = 50 s

Region: oil Courant Number mean: 8.45724e-05 max: 0.0198473
Region: sphere Diffusion Number mean: 0.107517 max: 0.695333
deltaT = 0.00142857
Time = 0.0357143


Solving for fluid region oil
diagonal:  Solving for rho, Initial residual = 0, Final residual = 0, No Iterations 0
DILUPBiCGStab:  Solving for Ux, Initial residual = 0.0036872, Final residual = 1.61157e-08, No Iterations 1
DILUPBiCGStab:  Solving for Uy, Initial residual = 0.000260169, Final residual = 2.84629e-09, No Iterations 1
DILUPBiCGStab:  Solving for Uz, Initial residual = 0.00367352, Final residual = 1.6231e-08, No Iterations 1
DILUPBiCGStab:  Solving for h, Initial residual = 0.000126186, Final residual = 4.58321e-10, No Iterations 1
Min/max T:300 497.114
GAMG:  Solving for p_rgh, Initial residual = 0.0187739, Final residual = 7.70848e-06, No Iterations 6
GAMG:  Solving for p_rgh, Initial residual = 0.000160223, Final residual = 4.9468e-06, No Iterations 2
diagonal:  Solving for rho, Initial residual = 0, Final residual = 0, No Iterations 0
time step continuity errors (oil): sum local = 6.87295e-08, global = 6.86627e-08, cumulative = 1.83761e-06

Solving for solid region sphere
DICPCG:  Solving for h, Initial residual = 0.0169145, Final residual = 1.56485e-10, No Iterations 5
Min/max T:491.317 499.998
ExecutionTime = 50.73 s  ClockTime = 51 s

Region: oil Courant Number mean: 8.44245e-05 max: 0.019749
Region: sphere Diffusion Number mean: 0.10752 max: 0.695351
deltaT = 0.00142857
Time = 0.0371429


Solving for fluid region oil
diagonal:  Solving for rho, Initial residual = 0, Final residual = 0, No Iterations 0
DILUPBiCGStab:  Solving for Ux, Initial residual = 0.00375914, Final residual = 1.55991e-08, No Iterations 1
DILUPBiCGStab:  Solving for Uy, Initial residual = 0.000273325, Final residual = 2.80821e-09, No Iterations 1
DILUPBiCGStab:  Solving for Uz, Initial residual = 0.00373538, Final residual = 1.57027e-08, No Iterations 1
DILUPBiCGStab:  Solving for h, Initial residual = 0.000117318, Final residual = 4.19968e-10, No Iterations 1
Min/max T:300 497.05
GAMG:  Solving for p_rgh, Initial residual = 0.0175343, Final residual = 9.0946e-06, No Iterations 6
GAMG:  Solving for p_rgh, Initial residual = 0.000148824, Final residual = 6.44513e-06, No Iterations 2
diagonal:  Solving for rho, Initial residual = 0, Final residual = 0, No Iterations 0
time step continuity errors (oil): sum local = 6.63389e-08, global = 6.62498e-08, cumulative = 1.90386e-06

Solving for solid region sphere
DICPCG:  Solving for h, Initial residual = 0.0161756, Final residual = 1.49493e-10, No Iterations 5
Min/max T:491.309 499.998
ExecutionTime = 52.09 s  ClockTime = 53 s

Region: oil Courant Number mean: 8.42716e-05 max: 0.0196523
Region: sphere Diffusion Number mean: 0.107523 max: 0.695367
deltaT = 0.00142857
Time = 0.0385714


Solving for fluid region oil
diagonal:  Solving for rho, Initial residual = 0, Final residual = 0, No Iterations 0
DILUPBiCGStab:  Solving for Ux, Initial residual = 0.00388038, Final residual = 1.51026e-08, No Iterations 1
DILUPBiCGStab:  Solving for Uy, Initial residual = 0.000292184, Final residual = 2.77438e-09, No Iterations 1
DILUPBiCGStab:  Solving for Uz, Initial residual = 0.00386377, Final residual = 1.52098e-08, No Iterations 1
DILUPBiCGStab:  Solving for h, Initial residual = 0.000109462, Final residual = 3.85659e-10, No Iterations 1
Min/max T:300 496.987
GAMG:  Solving for p_rgh, Initial residual = 0.0164024, Final residual = 7.71656e-06, No Iterations 6
GAMG:  Solving for p_rgh, Initial residual = 0.000129415, Final residual = 4.48179e-06, No Iterations 2
diagonal:  Solving for rho, Initial residual = 0, Final residual = 0, No Iterations 0
time step continuity errors (oil): sum local = 6.41192e-08, global = 6.40554e-08, cumulative = 1.96792e-06

Solving for solid region sphere
DICPCG:  Solving for h, Initial residual = 0.015482, Final residual = 1.43004e-10, No Iterations 5
Min/max T:491.31 499.998
ExecutionTime = 53.54 s  ClockTime = 54 s

Region: oil Courant Number mean: 8.41266e-05 max: 0.0195572
Region: sphere Diffusion Number mean: 0.107525 max: 0.69538
deltaT = 0.00142857
Time = 0.04


Solving for fluid region oil
diagonal:  Solving for rho, Initial residual = 0, Final residual = 0, No Iterations 0
DILUPBiCGStab:  Solving for Ux, Initial residual = 0.00365607, Final residual = 1.45381e-08, No Iterations 1
DILUPBiCGStab:  Solving for Uy, Initial residual = 0.000275807, Final residual = 2.73881e-09, No Iterations 1
DILUPBiCGStab:  Solving for Uz, Initial residual = 0.00365393, Final residual = 1.46518e-08, No Iterations 1
DILUPBiCGStab:  Solving for h, Initial residual = 0.000102189, Final residual = 3.54592e-10, No Iterations 1
Min/max T:300 496.926
GAMG:  Solving for p_rgh, Initial residual = 0.0153199, Final residual = 8.21397e-06, No Iterations 6
GAMG:  Solving for p_rgh, Initial residual = 0.000118817, Final residual = 4.65835e-06, No Iterations 2
diagonal:  Solving for rho, Initial residual = 0, Final residual = 0, No Iterations 0
time step continuity errors (oil): sum local = 6.20697e-08, global = 6.20026e-08, cumulative = 2.02992e-06

Solving for solid region sphere
DICPCG:  Solving for h, Initial residual = 0.0148286, Final residual = 1.36983e-10, No Iterations 5
Min/max T:491.319 499.997
ExecutionTime = 57.44 s  ClockTime = 58 s

wallHeatFlux wallHeatFlux1 write:
    writing field wallHeatFlux
    min/max/integ(maxY) = 0, 0, 0
    min/max/integ(minX) = 0, 0, 0
    min/max/integ(maxX) = 0, 0, 0
    min/max/integ(minY) = 0, 0, 0
    min/max/integ(minZ) = 0, 0, 0
    min/max/integ(maxZ) = 0, 0, 0
    min/max/integ(oil_to_sphere) = 284460, 985354, 1898.29
    functionObjects::heatTransferCoeff sphereHeatTrfCoeff writing field: heatTransferCoeff(T)
surfaceFieldValue avgSphereHeatTrfCoeff write:
    areaAverage(oil_to_sphere) of heatTransferCoeff(T) = -3491.54
    areaAverage(oil_to_sphere) of T = 493.138

Region: oil Courant Number mean: 8.39874e-05 max: 0.0194634
Region: sphere Diffusion Number mean: 0.107528 max: 0.69539
deltaT = 0.00142857
Time = 0.0414286


Solving for fluid region oil
diagonal:  Solving for rho, Initial residual = 0, Final residual = 0, No Iterations 0
DILUPBiCGStab:  Solving for Ux, Initial residual = 0.00348633, Final residual = 1.39875e-08, No Iterations 1
DILUPBiCGStab:  Solving for Uy, Initial residual = 0.000262431, Final residual = 2.70438e-09, No Iterations 1
DILUPBiCGStab:  Solving for Uz, Initial residual = 0.00347381, Final residual = 1.40897e-08, No Iterations 1
DILUPBiCGStab:  Solving for h, Initial residual = 9.55578e-05, Final residual = 3.26432e-10, No Iterations 1
Min/max T:300 496.867
GAMG:  Solving for p_rgh, Initial residual = 0.0143233, Final residual = 6.49289e-06, No Iterations 6
GAMG:  Solving for p_rgh, Initial residual = 0.00010633, Final residual = 9.15377e-06, No Iterations 1
diagonal:  Solving for rho, Initial residual = 0, Final residual = 0, No Iterations 0
time step continuity errors (oil): sum local = 5.99921e-08, global = 5.98583e-08, cumulative = 2.08978e-06

Solving for solid region sphere
DICPCG:  Solving for h, Initial residual = 0.0142108, Final residual = 1.31469e-10, No Iterations 5
Min/max T:491.336 499.997
ExecutionTime = 59.01 s  ClockTime = 60 s

Region: oil Courant Number mean: 8.38487e-05 max: 0.0193708
Region: sphere Diffusion Number mean: 0.10753 max: 0.695398
deltaT = 0.00142857
Time = 0.0428571


Solving for fluid region oil
diagonal:  Solving for rho, Initial residual = 0, Final residual = 0, No Iterations 0
DILUPBiCGStab:  Solving for Ux, Initial residual = 0.00346993, Final residual = 1.3478e-08, No Iterations 1
DILUPBiCGStab:  Solving for Uy, Initial residual = 0.00026504, Final residual = 2.67296e-09, No Iterations 1
DILUPBiCGStab:  Solving for Uz, Initial residual = 0.0034506, Final residual = 1.35718e-08, No Iterations 1
DILUPBiCGStab:  Solving for h, Initial residual = 8.94425e-05, Final residual = 3.00713e-10, No Iterations 1
Min/max T:300 496.808
GAMG:  Solving for p_rgh, Initial residual = 0.0134172, Final residual = 6.20904e-06, No Iterations 6
GAMG:  Solving for p_rgh, Initial residual = 9.55164e-05, Final residual = 8.18244e-06, No Iterations 1
diagonal:  Solving for rho, Initial residual = 0, Final residual = 0, No Iterations 0
time step continuity errors (oil): sum local = 5.78197e-08, global = 5.76977e-08, cumulative = 2.14748e-06

Solving for solid region sphere
DICPCG:  Solving for h, Initial residual = 0.0136343, Final residual = 1.26424e-10, No Iterations 5
Min/max T:491.36 499.996
ExecutionTime = 60.59 s  ClockTime = 61 s

Region: oil Courant Number mean: 8.37121e-05 max: 0.0192789
Region: sphere Diffusion Number mean: 0.107533 max: 0.695403
deltaT = 0.00142857
Time = 0.0442857


Solving for fluid region oil
diagonal:  Solving for rho, Initial residual = 0, Final residual = 0, No Iterations 0
DILUPBiCGStab:  Solving for Ux, Initial residual = 0.00341343, Final residual = 1.29676e-08, No Iterations 1
DILUPBiCGStab:  Solving for Uy, Initial residual = 0.000264018, Final residual = 2.64415e-09, No Iterations 1
DILUPBiCGStab:  Solving for Uz, Initial residual = 0.0034026, Final residual = 1.30634e-08, No Iterations 1
DILUPBiCGStab:  Solving for h, Initial residual = 8.37811e-05, Final residual = 2.77147e-10, No Iterations 1
Min/max T:300 496.751
GAMG:  Solving for p_rgh, Initial residual = 0.0125704, Final residual = 6.3782e-06, No Iterations 6
GAMG:  Solving for p_rgh, Initial residual = 8.94196e-05, Final residual = 8.24512e-06, No Iterations 1
diagonal:  Solving for rho, Initial residual = 0, Final residual = 0, No Iterations 0
time step continuity errors (oil): sum local = 5.57374e-08, global = 5.56121e-08, cumulative = 2.20309e-06

Solving for solid region sphere
DICPCG:  Solving for h, Initial residual = 0.0131035, Final residual = 1.21963e-10, No Iterations 5
Min/max T:491.39 499.996
ExecutionTime = 61.97 s  ClockTime = 63 s

Region: oil Courant Number mean: 8.35795e-05 max: 0.0191879
Region: sphere Diffusion Number mean: 0.107535 max: 0.695407
deltaT = 0.00142857
Time = 0.0457143


Solving for fluid region oil
diagonal:  Solving for rho, Initial residual = 0, Final residual = 0, No Iterations 0
DILUPBiCGStab:  Solving for Ux, Initial residual = 0.00330407, Final residual = 1.24534e-08, No Iterations 1
DILUPBiCGStab:  Solving for Uy, Initial residual = 0.00025716, Final residual = 2.61579e-09, No Iterations 1
DILUPBiCGStab:  Solving for Uz, Initial residual = 0.00329728, Final residual = 1.25498e-08, No Iterations 1
DILUPBiCGStab:  Solving for h, Initial residual = 7.85519e-05, Final residual = 2.55519e-10, No Iterations 1
Min/max T:300 496.696
GAMG:  Solving for p_rgh, Initial residual = 0.0117778, Final residual = 6.16784e-06, No Iterations 6
GAMG:  Solving for p_rgh, Initial residual = 8.23273e-05, Final residual = 7.66252e-06, No Iterations 1
diagonal:  Solving for rho, Initial residual = 0, Final residual = 0, No Iterations 0
time step continuity errors (oil): sum local = 5.36723e-08, global = 5.35543e-08, cumulative = 2.25664e-06

Solving for solid region sphere
DICPCG:  Solving for h, Initial residual = 0.0126243, Final residual = 1.17801e-10, No Iterations 5
Min/max T:491.427 499.995
ExecutionTime = 63.18 s  ClockTime = 64 s

Region: oil Courant Number mean: 8.34499e-05 max: 0.0190977
Region: sphere Diffusion Number mean: 0.107537 max: 0.695408
deltaT = 0.00142857
Time = 0.0471429


Solving for fluid region oil
diagonal:  Solving for rho, Initial residual = 0, Final residual = 0, No Iterations 0
DILUPBiCGStab:  Solving for Ux, Initial residual = 0.00322849, Final residual = 1.19546e-08, No Iterations 1
DILUPBiCGStab:  Solving for Uy, Initial residual = 0.000252826, Final residual = 2.58801e-09, No Iterations 1
DILUPBiCGStab:  Solving for Uz, Initial residual = 0.00321645, Final residual = 1.20439e-08, No Iterations 1
DILUPBiCGStab:  Solving for h, Initial residual = 7.36648e-05, Final residual = 2.35586e-10, No Iterations 1
Min/max T:300 496.642
GAMG:  Solving for p_rgh, Initial residual = 0.0110391, Final residual = 9.46941e-06, No Iterations 5
GAMG:  Solving for p_rgh, Initial residual = 7.80098e-05, Final residual = 8.44124e-06, No Iterations 1
diagonal:  Solving for rho, Initial residual = 0, Final residual = 0, No Iterations 0
time step continuity errors (oil): sum local = 5.1625e-08, global = 5.14933e-08, cumulative = 2.30814e-06

Solving for solid region sphere
DICPCG:  Solving for h, Initial residual = 0.0122115, Final residual = 1.14002e-10, No Iterations 5
Min/max T:491.47 499.994
ExecutionTime = 64.43 s  ClockTime = 65 s

Region: oil Courant Number mean: 8.33231e-05 max: 0.0190082
Region: sphere Diffusion Number mean: 0.107539 max: 0.695407
deltaT = 0.00142857
Time = 0.0485714


Solving for fluid region oil
diagonal:  Solving for rho, Initial residual = 0, Final residual = 0, No Iterations 0
DILUPBiCGStab:  Solving for Ux, Initial residual = 0.0031772, Final residual = 1.14743e-08, No Iterations 1
DILUPBiCGStab:  Solving for Uy, Initial residual = 0.000250987, Final residual = 2.56131e-09, No Iterations 1
DILUPBiCGStab:  Solving for Uz, Initial residual = 0.00316421, Final residual = 1.15594e-08, No Iterations 1
DILUPBiCGStab:  Solving for h, Initial residual = 6.91056e-05, Final residual = 2.17204e-10, No Iterations 1
Min/max T:300 496.589
GAMG:  Solving for p_rgh, Initial residual = 0.0103487, Final residual = 9.56932e-06, No Iterations 5
GAMG:  Solving for p_rgh, Initial residual = 7.24007e-05, Final residual = 8.19055e-06, No Iterations 1
diagonal:  Solving for rho, Initial residual = 0, Final residual = 0, No Iterations 0
time step continuity errors (oil): sum local = 4.95859e-08, global = 4.94563e-08, cumulative = 2.35759e-06

Solving for solid region sphere
DICPCG:  Solving for h, Initial residual = 0.0118631, Final residual = 1.10599e-10, No Iterations 5
Min/max T:491.518 499.993
ExecutionTime = 65.78 s  ClockTime = 66 s

Region: oil Courant Number mean: 8.31995e-05 max: 0.0189191
Region: sphere Diffusion Number mean: 0.107541 max: 0.695405
deltaT = 0.00142857
Time = 0.05


Solving for fluid region oil
diagonal:  Solving for rho, Initial residual = 0, Final residual = 0, No Iterations 0
DILUPBiCGStab:  Solving for Ux, Initial residual = 0.00311266, Final residual = 1.09956e-08, No Iterations 1
DILUPBiCGStab:  Solving for Uy, Initial residual = 0.000247706, Final residual = 2.53587e-09, No Iterations 1
DILUPBiCGStab:  Solving for Uz, Initial residual = 0.00310257, Final residual = 1.10791e-08, No Iterations 1
DILUPBiCGStab:  Solving for h, Initial residual = 6.48473e-05, Final residual = 2.00218e-10, No Iterations 1
Min/max T:300 496.538
GAMG:  Solving for p_rgh, Initial residual = 0.0096989, Final residual = 9.22749e-06, No Iterations 5
GAMG:  Solving for p_rgh, Initial residual = 6.77563e-05, Final residual = 7.92216e-06, No Iterations 1
diagonal:  Solving for rho, Initial residual = 0, Final residual = 0, No Iterations 0
time step continuity errors (oil): sum local = 4.75794e-08, global = 4.74524e-08, cumulative = 2.40505e-06

Solving for solid region sphere
DICPCG:  Solving for h, Initial residual = 0.0115696, Final residual = 1.0766e-10, No Iterations 5
Min/max T:491.572 499.992
ExecutionTime = 69.39 s  ClockTime = 70 s

wallHeatFlux wallHeatFlux1 write:
    writing field wallHeatFlux
    min/max/integ(maxY) = 0, 0, 0
    min/max/integ(minX) = 0, 0, 0
    min/max/integ(maxX) = 0, 0, 0
    min/max/integ(minY) = 0, 0, 0
    min/max/integ(minZ) = 0, 0, 0
    min/max/integ(maxZ) = 0, 0, 0
    min/max/integ(oil_to_sphere) = 270885, 726601, 1434.12
    functionObjects::heatTransferCoeff sphereHeatTrfCoeff writing field: heatTransferCoeff(T)
surfaceFieldValue avgSphereHeatTrfCoeff write:
    areaAverage(oil_to_sphere) of heatTransferCoeff(T) = -2636.78
    areaAverage(oil_to_sphere) of T = 493.134

Region: oil Courant Number mean: 8.30793e-05 max: 0.0188303
Region: sphere Diffusion Number mean: 0.107543 max: 0.695401
deltaT = 0.00142857
Time = 0.0514286


Solving for fluid region oil
diagonal:  Solving for rho, Initial residual = 0, Final residual = 0, No Iterations 0
DILUPBiCGStab:  Solving for Ux, Initial residual = 0.00304501, Final residual = 1.05291e-08, No Iterations 1
DILUPBiCGStab:  Solving for Uy, Initial residual = 0.000243888, Final residual = 2.51069e-09, No Iterations 1
DILUPBiCGStab:  Solving for Uz, Initial residual = 0.00303537, Final residual = 1.06097e-08, No Iterations 1
DILUPBiCGStab:  Solving for h, Initial residual = 6.08487e-05, Final residual = 1.84489e-10, No Iterations 1
Min/max T:300 496.488
GAMG:  Solving for p_rgh, Initial residual = 0.00908805, Final residual = 8.7189e-06, No Iterations 5
GAMG:  Solving for p_rgh, Initial residual = 6.29525e-05, Final residual = 7.40888e-06, No Iterations 1
diagonal:  Solving for rho, Initial residual = 0, Final residual = 0, No Iterations 0
time step continuity errors (oil): sum local = 4.5589e-08, global = 4.54689e-08, cumulative = 2.45051e-06

Solving for solid region sphere
DICPCG:  Solving for h, Initial residual = 0.0113145, Final residual = 1.05109e-10, No Iterations 5
Min/max T:491.63 499.991
ExecutionTime = 70.66 s  ClockTime = 71 s

Region: oil Courant Number mean: 8.29629e-05 max: 0.018742
Region: sphere Diffusion Number mean: 0.107545 max: 0.695395
deltaT = 0.00142857
Time = 0.0528571


Solving for fluid region oil
diagonal:  Solving for rho, Initial residual = 0, Final residual = 0, No Iterations 0
DILUPBiCGStab:  Solving for Ux, Initial residual = 0.0029884, Final residual = 1.00748e-08, No Iterations 1
DILUPBiCGStab:  Solving for Uy, Initial residual = 0.000240918, Final residual = 2.48586e-09, No Iterations 1
DILUPBiCGStab:  Solving for Uz, Initial residual = 0.00297684, Final residual = 1.01518e-08, No Iterations 1
DILUPBiCGStab:  Solving for h, Initial residual = 5.70819e-05, Final residual = 1.69907e-10, No Iterations 1
Min/max T:300 496.439
GAMG:  Solving for p_rgh, Initial residual = 0.00851301, Final residual = 8.19695e-06, No Iterations 5
GAMG:  Solving for p_rgh, Initial residual = 5.87071e-05, Final residual = 6.93817e-06, No Iterations 1
diagonal:  Solving for rho, Initial residual = 0, Final residual = 0, No Iterations 0
time step continuity errors (oil): sum local = 4.36186e-08, global = 4.35049e-08, cumulative = 2.49402e-06

Solving for solid region sphere
DICPCG:  Solving for h, Initial residual = 0.0110945, Final residual = 1.02951e-10, No Iterations 5
Min/max T:491.693 499.99
ExecutionTime = 72.01 s  ClockTime = 73 s

Region: oil Courant Number mean: 8.28497e-05 max: 0.0186539
Region: sphere Diffusion Number mean: 0.107547 max: 0.695388
deltaT = 0.00142857
Time = 0.0542857


Solving for fluid region oil
diagonal:  Solving for rho, Initial residual = 0, Final residual = 0, No Iterations 0
DILUPBiCGStab:  Solving for Ux, Initial residual = 0.00293541, Final residual = 9.63322e-09, No Iterations 1
DILUPBiCGStab:  Solving for Uy, Initial residual = 0.000238218, Final residual = 2.46142e-09, No Iterations 1
DILUPBiCGStab:  Solving for Uz, Initial residual = 0.00292364, Final residual = 9.70805e-09, No Iterations 1
DILUPBiCGStab:  Solving for h, Initial residual = 5.35333e-05, Final residual = 1.56359e-10, No Iterations 1
Min/max T:300 496.391
GAMG:  Solving for p_rgh, Initial residual = 0.0079707, Final residual = 7.89788e-06, No Iterations 5
GAMG:  Solving for p_rgh, Initial residual = 5.48702e-05, Final residual = 6.60653e-06, No Iterations 1
diagonal:  Solving for rho, Initial residual = 0, Final residual = 0, No Iterations 0
time step continuity errors (oil): sum local = 4.16767e-08, global = 4.15672e-08, cumulative = 2.53559e-06

Solving for solid region sphere
DICPCG:  Solving for h, Initial residual = 0.0109118, Final residual = 1.01222e-10, No Iterations 5
Min/max T:491.76 499.989
ExecutionTime = 73.15 s  ClockTime = 74 s

Region: oil Courant Number mean: 8.27404e-05 max: 0.0185662
Region: sphere Diffusion Number mean: 0.107549 max: 0.69538
deltaT = 0.00142857
Time = 0.0557143


Solving for fluid region oil
diagonal:  Solving for rho, Initial residual = 0, Final residual = 0, No Iterations 0
DILUPBiCGStab:  Solving for Ux, Initial residual = 0.00287991, Final residual = 9.20302e-09, No Iterations 1
DILUPBiCGStab:  Solving for Uy, Initial residual = 0.000235209, Final residual = 2.43726e-09, No Iterations 1
DILUPBiCGStab:  Solving for Uz, Initial residual = 0.00286915, Final residual = 9.27465e-09, No Iterations 1
DILUPBiCGStab:  Solving for h, Initial residual = 5.0184e-05, Final residual = 1.43774e-10, No Iterations 1
Min/max T:300 496.345
GAMG:  Solving for p_rgh, Initial residual = 0.00745697, Final residual = 7.63381e-06, No Iterations 5
GAMG:  Solving for p_rgh, Initial residual = 5.14525e-05, Final residual = 6.32357e-06, No Iterations 1
diagonal:  Solving for rho, Initial residual = 0, Final residual = 0, No Iterations 0
time step continuity errors (oil): sum local = 3.97628e-08, global = 3.9657e-08, cumulative = 2.57524e-06

Solving for solid region sphere
DICPCG:  Solving for h, Initial residual = 0.0107544, Final residual = 9.98349e-11, No Iterations 5
Min/max T:491.831 499.987
ExecutionTime = 74.32 s  ClockTime = 75 s

Region: oil Courant Number mean: 8.26347e-05 max: 0.0184786
Region: sphere Diffusion Number mean: 0.107551 max: 0.69537
deltaT = 0.00142857
Time = 0.0571429


Solving for fluid region oil
diagonal:  Solving for rho, Initial residual = 0, Final residual = 0, No Iterations 0
DILUPBiCGStab:  Solving for Ux, Initial residual = 0.00282526, Final residual = 8.78448e-09, No Iterations 1
DILUPBiCGStab:  Solving for Uy, Initial residual = 0.000232127, Final residual = 2.41326e-09, No Iterations 1
DILUPBiCGStab:  Solving for Uz, Initial residual = 0.00281487, Final residual = 8.8526e-09, No Iterations 1
DILUPBiCGStab:  Solving for h, Initial residual = 4.70168e-05, Final residual = 1.32091e-10, No Iterations 1
Min/max T:300 496.3
GAMG:  Solving for p_rgh, Initial residual = 0.00697043, Final residual = 7.3527e-06, No Iterations 5
GAMG:  Solving for p_rgh, Initial residual = 4.82933e-05, Final residual = 6.03376e-06, No Iterations 1
diagonal:  Solving for rho, Initial residual = 0, Final residual = 0, No Iterations 0
time step continuity errors (oil): sum local = 3.78763e-08, global = 3.77744e-08, cumulative = 2.61302e-06

Solving for solid region sphere
DICPCG:  Solving for h, Initial residual = 0.0106151, Final residual = 9.87024e-11, No Iterations 5
Min/max T:491.906 499.986
ExecutionTime = 75.72 s  ClockTime = 76 s

Region: oil Courant Number mean: 8.25321e-05 max: 0.0183912
Region: sphere Diffusion Number mean: 0.107552 max: 0.69536
deltaT = 0.00142857
Time = 0.0585714


Solving for fluid region oil
diagonal:  Solving for rho, Initial residual = 0, Final residual = 0, No Iterations 0
DILUPBiCGStab:  Solving for Ux, Initial residual = 0.00277155, Final residual = 8.37992e-09, No Iterations 1
DILUPBiCGStab:  Solving for Uy, Initial residual = 0.000229057, Final residual = 2.38925e-09, No Iterations 1
DILUPBiCGStab:  Solving for Uz, Initial residual = 0.00276164, Final residual = 8.44351e-09, No Iterations 1
DILUPBiCGStab:  Solving for h, Initial residual = 4.40225e-05, Final residual = 1.21235e-10, No Iterations 1
Min/max T:300 496.256
GAMG:  Solving for p_rgh, Initial residual = 0.00651064, Final residual = 7.22674e-06, No Iterations 5
GAMG:  Solving for p_rgh, Initial residual = 4.56027e-05, Final residual = 5.86567e-06, No Iterations 1
diagonal:  Solving for rho, Initial residual = 0, Final residual = 0, No Iterations 0
time step continuity errors (oil): sum local = 3.60249e-08, global = 3.5925e-08, cumulative = 2.64894e-06

Solving for solid region sphere
DICPCG:  Solving for h, Initial residual = 0.0104888, Final residual = 9.78434e-11, No Iterations 5
Min/max T:491.985 499.984
ExecutionTime = 76.95 s  ClockTime = 78 s

Region: oil Courant Number mean: 8.24329e-05 max: 0.0183041
Region: sphere Diffusion Number mean: 0.107554 max: 0.695348
deltaT = 0.00142857
Time = 0.06


Solving for fluid region oil
diagonal:  Solving for rho, Initial residual = 0, Final residual = 0, No Iterations 0
DILUPBiCGStab:  Solving for Ux, Initial residual = 0.00271582, Final residual = 7.98662e-09, No Iterations 1
DILUPBiCGStab:  Solving for Uy, Initial residual = 0.00022562, Final residual = 2.36534e-09, No Iterations 1
DILUPBiCGStab:  Solving for Uz, Initial residual = 0.00270566, Final residual = 8.04579e-09, No Iterations 1
DILUPBiCGStab:  Solving for h, Initial residual = 4.11935e-05, Final residual = 1.11165e-10, No Iterations 1
Min/max T:300 496.213
GAMG:  Solving for p_rgh, Initial residual = 0.00607365, Final residual = 7.09417e-06, No Iterations 5
GAMG:  Solving for p_rgh, Initial residual = 4.31133e-05, Final residual = 5.70504e-06, No Iterations 1
diagonal:  Solving for rho, Initial residual = 0, Final residual = 0, No Iterations 0
time step continuity errors (oil): sum local = 3.42126e-08, global = 3.41146e-08, cumulative = 2.68306e-06

Solving for solid region sphere
DICPCG:  Solving for h, Initial residual = 0.0103705, Final residual = 9.71255e-11, No Iterations 5
Min/max T:492.066 499.982
ExecutionTime = 80.52 s  ClockTime = 82 s

wallHeatFlux wallHeatFlux1 write:
    writing field wallHeatFlux
    min/max/integ(maxY) = 0, 0, 0
    min/max/integ(minX) = 0, 0, 0
    min/max/integ(maxX) = 0, 0, 0
    min/max/integ(minY) = 0, 0, 0
    min/max/integ(minZ) = 0, 0, 0
    min/max/integ(maxZ) = 0, 0, 0
    min/max/integ(oil_to_sphere) = 197843, 511689, 1013.5
    functionObjects::heatTransferCoeff sphereHeatTrfCoeff writing field: heatTransferCoeff(T)
surfaceFieldValue avgSphereHeatTrfCoeff write:
    areaAverage(oil_to_sphere) of heatTransferCoeff(T) = -1860.73
    areaAverage(oil_to_sphere) of T = 493.34

Region: oil Courant Number mean: 8.23364e-05 max: 0.0182174
Region: sphere Diffusion Number mean: 0.107555 max: 0.695336
deltaT = 0.00166667
Time = 0.0616667


Solving for fluid region oil
diagonal:  Solving for rho, Initial residual = 0, Final residual = 0, No Iterations 0
DILUPBiCGStab:  Solving for Ux, Initial residual = 0.00310598, Final residual = 1.26741e-08, No Iterations 1
DILUPBiCGStab:  Solving for Uy, Initial residual = 0.00025975, Final residual = 3.73174e-09, No Iterations 1
DILUPBiCGStab:  Solving for Uz, Initial residual = 0.00309403, Final residual = 1.27653e-08, No Iterations 1
DILUPBiCGStab:  Solving for h, Initial residual = 4.49458e-05, Final residual = 1.60913e-10, No Iterations 1
Min/max T:300 496.172
GAMG:  Solving for p_rgh, Initial residual = 0.0129217, Final residual = 7.53882e-06, No Iterations 6
GAMG:  Solving for p_rgh, Initial residual = 0.000115214, Final residual = 4.46165e-06, No Iterations 2
diagonal:  Solving for rho, Initial residual = 0, Final residual = 0, No Iterations 0
time step continuity errors (oil): sum local = 3.7745e-08, global = 3.76432e-08, cumulative = 2.7207e-06

Solving for solid region sphere
DICPCG:  Solving for h, Initial residual = 0.011979, Final residual = 3.09797e-10, No Iterations 5
Min/max T:492.155 499.979
ExecutionTime = 81.98 s  ClockTime = 83 s

Region: oil Courant Number mean: 9.59403e-05 max: 0.0211394
Region: sphere Diffusion Number mean: 0.125483 max: 0.811211
deltaT = 0.00166667
Time = 0.0633333


Solving for fluid region oil
diagonal:  Solving for rho, Initial residual = 0, Final residual = 0, No Iterations 0
DILUPBiCGStab:  Solving for Ux, Initial residual = 0.0027132, Final residual = 1.16789e-08, No Iterations 1
DILUPBiCGStab:  Solving for Uy, Initial residual = 0.000232174, Final residual = 3.66451e-09, No Iterations 1
DILUPBiCGStab:  Solving for Uz, Initial residual = 0.00270561, Final residual = 1.17675e-08, No Iterations 1
DILUPBiCGStab:  Solving for h, Initial residual = 4.16541e-05, Final residual = 1.45701e-10, No Iterations 1
Min/max T:300 496.125
GAMG:  Solving for p_rgh, Initial residual = 0.00575342, Final residual = 7.99274e-06, No Iterations 5
GAMG:  Solving for p_rgh, Initial residual = 4.23489e-05, Final residual = 6.269e-06, No Iterations 1
diagonal:  Solving for rho, Initial residual = 0, Final residual = 0, No Iterations 0
time step continuity errors (oil): sum local = 3.55695e-08, global = 3.54266e-08, cumulative = 2.75613e-06

Solving for solid region sphere
DICPCG:  Solving for h, Initial residual = 0.0117957, Final residual = 3.06841e-10, No Iterations 5
Min/max T:492.255 499.976
ExecutionTime = 83.51 s  ClockTime = 85 s

Region: oil Courant Number mean: 9.58223e-05 max: 0.0210241
Region: sphere Diffusion Number mean: 0.125484 max: 0.811193
deltaT = 0.00166667
Time = 0.065


Solving for fluid region oil
diagonal:  Solving for rho, Initial residual = 0, Final residual = 0, No Iterations 0
DILUPBiCGStab:  Solving for Ux, Initial residual = 0.00274484, Final residual = 1.11961e-08, No Iterations 1
DILUPBiCGStab:  Solving for Uy, Initial residual = 0.000236317, Final residual = 3.62835e-09, No Iterations 1
DILUPBiCGStab:  Solving for Uz, Initial residual = 0.00272462, Final residual = 1.12692e-08, No Iterations 1
DILUPBiCGStab:  Solving for h, Initial residual = 3.85292e-05, Final residual = 1.31928e-10, No Iterations 1
Min/max T:300 496.08
GAMG:  Solving for p_rgh, Initial residual = 0.00530524, Final residual = 7.7023e-06, No Iterations 5
GAMG:  Solving for p_rgh, Initial residual = 3.98307e-05, Final residual = 5.85787e-06, No Iterations 1
diagonal:  Solving for rho, Initial residual = 0, Final residual = 0, No Iterations 0
time step continuity errors (oil): sum local = 3.33523e-08, global = 3.32174e-08, cumulative = 2.78934e-06

Solving for solid region sphere
DICPCG:  Solving for h, Initial residual = 0.0115779, Final residual = 3.02747e-10, No Iterations 5
Min/max T:492.356 499.973
ExecutionTime = 85.13 s  ClockTime = 86 s

Region: oil Courant Number mean: 9.57075e-05 max: 0.0209102
Region: sphere Diffusion Number mean: 0.125486 max: 0.811176
deltaT = 0.00166667
Time = 0.0666667


Solving for fluid region oil
diagonal:  Solving for rho, Initial residual = 0, Final residual = 0, No Iterations 0
DILUPBiCGStab:  Solving for Ux, Initial residual = 0.00270202, Final residual = 1.0523e-08, No Iterations 1
DILUPBiCGStab:  Solving for Uy, Initial residual = 0.000234606, Final residual = 3.58047e-09, No Iterations 1
DILUPBiCGStab:  Solving for Uz, Initial residual = 0.00269101, Final residual = 1.05951e-08, No Iterations 1
DILUPBiCGStab:  Solving for h, Initial residual = 3.5853e-05, Final residual = 1.20194e-10, No Iterations 1
Min/max T:300 496.036
GAMG:  Solving for p_rgh, Initial residual = 0.00489852, Final residual = 6.45812e-06, No Iterations 6
GAMG:  Solving for p_rgh, Initial residual = 5.30291e-05, Final residual = 7.90226e-06, No Iterations 1
diagonal:  Solving for rho, Initial residual = 0, Final residual = 0, No Iterations 0
time step continuity errors (oil): sum local = 3.15233e-08, global = 3.13372e-08, cumulative = 2.82068e-06

Solving for solid region sphere
DICPCG:  Solving for h, Initial residual = 0.0112974, Final residual = 2.96543e-10, No Iterations 5
Min/max T:492.457 499.97
ExecutionTime = 86.9 s  ClockTime = 88 s

Region: oil Courant Number mean: 9.56015e-05 max: 0.0207992
Region: sphere Diffusion Number mean: 0.125487 max: 0.811158
deltaT = 0.00166667
Time = 0.0683333


Solving for fluid region oil
diagonal:  Solving for rho, Initial residual = 0, Final residual = 0, No Iterations 0
DILUPBiCGStab:  Solving for Ux, Initial residual = 0.00244679, Final residual = 9.7477e-09, No Iterations 1
DILUPBiCGStab:  Solving for Uy, Initial residual = 0.000210921, Final residual = 3.52227e-09, No Iterations 1
DILUPBiCGStab:  Solving for Uz, Initial residual = 0.00244189, Final residual = 9.8234e-09, No Iterations 1
DILUPBiCGStab:  Solving for h, Initial residual = 3.37919e-05, Final residual = 1.10865e-10, No Iterations 1
Min/max T:300 495.994
GAMG:  Solving for p_rgh, Initial residual = 0.0045186, Final residual = 8.64392e-06, No Iterations 6
GAMG:  Solving for p_rgh, Initial residual = 6.69407e-05, Final residual = 4.75334e-06, No Iterations 2
diagonal:  Solving for rho, Initial residual = 0, Final residual = 0, No Iterations 0
time step continuity errors (oil): sum local = 3.00114e-08, global = 2.99002e-08, cumulative = 2.85058e-06

Solving for solid region sphere
DICPCG:  Solving for h, Initial residual = 0.0109687, Final residual = 2.8961e-10, No Iterations 5
Min/max T:492.556 499.966
ExecutionTime = 88.43 s  ClockTime = 90 s

Region: oil Courant Number mean: 9.55061e-05 max: 0.0206923
Region: sphere Diffusion Number mean: 0.125489 max: 0.811141
deltaT = 0.00166667
Time = 0.07


Solving for fluid region oil
diagonal:  Solving for rho, Initial residual = 0, Final residual = 0, No Iterations 0
DILUPBiCGStab:  Solving for Ux, Initial residual = 0.0021126, Final residual = 8.98542e-09, No Iterations 1
DILUPBiCGStab:  Solving for Uy, Initial residual = 0.000178031, Final residual = 3.46015e-09, No Iterations 1
DILUPBiCGStab:  Solving for Uz, Initial residual = 0.00209992, Final residual = 9.04876e-09, No Iterations 1
DILUPBiCGStab:  Solving for h, Initial residual = 3.21993e-05, Final residual = 1.03453e-10, No Iterations 1
Min/max T:300 495.953
GAMG:  Solving for p_rgh, Initial residual = 0.0041684, Final residual = 8.0141e-06, No Iterations 6
GAMG:  Solving for p_rgh, Initial residual = 6.09065e-05, Final residual = 9.48801e-06, No Iterations 1
diagonal:  Solving for rho, Initial residual = 0, Final residual = 0, No Iterations 0
time step continuity errors (oil): sum local = 2.90395e-08, global = 2.88132e-08, cumulative = 2.8794e-06

Solving for solid region sphere
DICPCG:  Solving for h, Initial residual = 0.010615, Final residual = 2.82055e-10, No Iterations 5
Min/max T:492.651 499.961
ExecutionTime = 92 s  ClockTime = 93 s

wallHeatFlux wallHeatFlux1 write:
    writing field wallHeatFlux
    min/max/integ(maxY) = 0, 0, 0
    min/max/integ(minX) = 0, 0, 0
    min/max/integ(maxX) = 0, 0, 0
    min/max/integ(minY) = 0, 0, 0
    min/max/integ(minZ) = 0, 0, 0
    min/max/integ(maxZ) = 0, 0, 0
    min/max/integ(oil_to_sphere) = 164296, 433546, 749.047
    functionObjects::heatTransferCoeff sphereHeatTrfCoeff writing field: heatTransferCoeff(T)
surfaceFieldValue avgSphereHeatTrfCoeff write:
    areaAverage(oil_to_sphere) of heatTransferCoeff(T) = -1373.05
    areaAverage(oil_to_sphere) of T = 493.622

Region: oil Courant Number mean: 9.54189e-05 max: 0.0205885
Region: sphere Diffusion Number mean: 0.12549 max: 0.811124
deltaT = 0.00166667
Time = 0.0716667


Solving for fluid region oil
diagonal:  Solving for rho, Initial residual = 0, Final residual = 0, No Iterations 0
DILUPBiCGStab:  Solving for Ux, Initial residual = 0.00183915, Final residual = 8.42892e-09, No Iterations 1
DILUPBiCGStab:  Solving for Uy, Initial residual = 0.000152051, Final residual = 3.40778e-09, No Iterations 1
DILUPBiCGStab:  Solving for Uz, Initial residual = 0.00183209, Final residual = 8.49609e-09, No Iterations 1
DILUPBiCGStab:  Solving for h, Initial residual = 3.09889e-05, Final residual = 9.75655e-11, No Iterations 1
Min/max T:300 495.914
GAMG:  Solving for p_rgh, Initial residual = 0.00385214, Final residual = 7.11997e-06, No Iterations 6
GAMG:  Solving for p_rgh, Initial residual = 5.32499e-05, Final residual = 8.18021e-06, No Iterations 1
diagonal:  Solving for rho, Initial residual = 0, Final residual = 0, No Iterations 0
time step continuity errors (oil): sum local = 2.82144e-08, global = 2.80184e-08, cumulative = 2.90741e-06

Solving for solid region sphere
DICPCG:  Solving for h, Initial residual = 0.0102743, Final residual = 2.73975e-10, No Iterations 5
Min/max T:492.74 499.957
ExecutionTime = 93.62 s  ClockTime = 95 s

Region: oil Courant Number mean: 9.53385e-05 max: 0.0204872
Region: sphere Diffusion Number mean: 0.125492 max: 0.811108
deltaT = 0.00166667
Time = 0.0733333


Solving for fluid region oil
diagonal:  Solving for rho, Initial residual = 0, Final residual = 0, No Iterations 0
DILUPBiCGStab:  Solving for Ux, Initial residual = 0.00162171, Final residual = 8.04446e-09, No Iterations 1
DILUPBiCGStab:  Solving for Uy, Initial residual = 0.000131214, Final residual = 3.36337e-09, No Iterations 1
DILUPBiCGStab:  Solving for Uz, Initial residual = 0.00161379, Final residual = 8.10788e-09, No Iterations 1
DILUPBiCGStab:  Solving for h, Initial residual = 3.0135e-05, Final residual = 9.31991e-11, No Iterations 1
Min/max T:300 495.876
GAMG:  Solving for p_rgh, Initial residual = 0.00357894, Final residual = 6.5252e-06, No Iterations 6
GAMG:  Solving for p_rgh, Initial residual = 4.9716e-05, Final residual = 7.76171e-06, No Iterations 1
diagonal:  Solving for rho, Initial residual = 0, Final residual = 0, No Iterations 0
time step continuity errors (oil): sum local = 2.76958e-08, global = 2.75088e-08, cumulative = 2.93492e-06

Solving for solid region sphere
DICPCG:  Solving for h, Initial residual = 0.00999618, Final residual = 2.66128e-10, No Iterations 5
Min/max T:492.742 499.952
ExecutionTime = 95.26 s  ClockTime = 97 s

Region: oil Courant Number mean: 9.52646e-05 max: 0.0203869
Region: sphere Diffusion Number mean: 0.125493 max: 0.811093
deltaT = 0.00166667
Time = 0.075


Solving for fluid region oil
diagonal:  Solving for rho, Initial residual = 0, Final residual = 0, No Iterations 0
DILUPBiCGStab:  Solving for Ux, Initial residual = 0.00142871, Final residual = 7.82457e-09, No Iterations 1
DILUPBiCGStab:  Solving for Uy, Initial residual = 0.000113805, Final residual = 3.32381e-09, No Iterations 1
DILUPBiCGStab:  Solving for Uz, Initial residual = 0.0014227, Final residual = 7.88564e-09, No Iterations 1
DILUPBiCGStab:  Solving for h, Initial residual = 2.96153e-05, Final residual = 9.03136e-11, No Iterations 1
Min/max T:300 495.839
GAMG:  Solving for p_rgh, Initial residual = 0.00334819, Final residual = 5.96937e-06, No Iterations 6
GAMG:  Solving for p_rgh, Initial residual = 4.68818e-05, Final residual = 7.27141e-06, No Iterations 1
diagonal:  Solving for rho, Initial residual = 0, Final residual = 0, No Iterations 0
time step continuity errors (oil): sum local = 2.74531e-08, global = 2.72771e-08, cumulative = 2.9622e-06

Solving for solid region sphere
DICPCG:  Solving for h, Initial residual = 0.00976758, Final residual = 2.58871e-10, No Iterations 5
Min/max T:492.691 499.946
ExecutionTime = 96.6 s  ClockTime = 98 s

Region: oil Courant Number mean: 9.51966e-05 max: 0.0202865
Region: sphere Diffusion Number mean: 0.125494 max: 0.811079
deltaT = 0.00166667
Time = 0.0766667


Solving for fluid region oil
diagonal:  Solving for rho, Initial residual = 0, Final residual = 0, No Iterations 0
DILUPBiCGStab:  Solving for Ux, Initial residual = 0.00127988, Final residual = 7.68792e-09, No Iterations 1
DILUPBiCGStab:  Solving for Uy, Initial residual = 0.000101749, Final residual = 3.28977e-09, No Iterations 1
DILUPBiCGStab:  Solving for Uz, Initial residual = 0.00127445, Final residual = 7.74611e-09, No Iterations 1
DILUPBiCGStab:  Solving for h, Initial residual = 2.94212e-05, Final residual = 8.88213e-11, No Iterations 1
Min/max T:300 495.804
GAMG:  Solving for p_rgh, Initial residual = 0.00316215, Final residual = 5.81635e-06, No Iterations 6
GAMG:  Solving for p_rgh, Initial residual = 4.71284e-05, Final residual = 7.29749e-06, No Iterations 1
diagonal:  Solving for rho, Initial residual = 0, Final residual = 0, No Iterations 0
time step continuity errors (oil): sum local = 2.75034e-08, global = 2.73261e-08, cumulative = 2.98953e-06

Solving for solid region sphere
DICPCG:  Solving for h, Initial residual = 0.00956835, Final residual = 2.52283e-10, No Iterations 5
Min/max T:492.636 499.94
ExecutionTime = 98.09 s  ClockTime = 100 s

Region: oil Courant Number mean: 9.51346e-05 max: 0.0201858
Region: sphere Diffusion Number mean: 0.125496 max: 0.811068
deltaT = 0.00166667
Time = 0.0783333


Solving for fluid region oil
diagonal:  Solving for rho, Initial residual = 0, Final residual = 0, No Iterations 0
DILUPBiCGStab:  Solving for Ux, Initial residual = 0.00121088, Final residual = 7.64017e-09, No Iterations 1
DILUPBiCGStab:  Solving for Uy, Initial residual = 0.000101534, Final residual = 3.27205e-09, No Iterations 1
DILUPBiCGStab:  Solving for Uz, Initial residual = 0.00120347, Final residual = 7.68415e-09, No Iterations 1
DILUPBiCGStab:  Solving for h, Initial residual = 2.9566e-05, Final residual = 8.87089e-11, No Iterations 1
Min/max T:300 495.77
GAMG:  Solving for p_rgh, Initial residual = 0.00301837, Final residual = 6.28994e-06, No Iterations 6
GAMG:  Solving for p_rgh, Initial residual = 4.89572e-05, Final residual = 7.70482e-06, No Iterations 1
diagonal:  Solving for rho, Initial residual = 0, Final residual = 0, No Iterations 0
time step continuity errors (oil): sum local = 2.78666e-08, global = 2.76788e-08, cumulative = 3.0172e-06

Solving for solid region sphere
DICPCG:  Solving for h, Initial residual = 0.00940163, Final residual = 2.46475e-10, No Iterations 5
Min/max T:492.577 499.934
ExecutionTime = 99.62 s  ClockTime = 101 s

Region: oil Courant Number mean: 9.50791e-05 max: 0.0200848
Region: sphere Diffusion Number mean: 0.125497 max: 0.811059
deltaT = 0.00166667
Time = 0.08


Solving for fluid region oil
diagonal:  Solving for rho, Initial residual = 0, Final residual = 0, No Iterations 0
DILUPBiCGStab:  Solving for Ux, Initial residual = 0.00129734, Final residual = 7.65514e-09, No Iterations 1
DILUPBiCGStab:  Solving for Uy, Initial residual = 0.000117385, Final residual = 3.278e-09, No Iterations 1
DILUPBiCGStab:  Solving for Uz, Initial residual = 0.00128995, Final residual = 7.68184e-09, No Iterations 1
DILUPBiCGStab:  Solving for h, Initial residual = 3.00213e-05, Final residual = 8.98776e-11, No Iterations 1
Min/max T:300 495.737
GAMG:  Solving for p_rgh, Initial residual = 0.00292814, Final residual = 6.17558e-06, No Iterations 6
GAMG:  Solving for p_rgh, Initial residual = 4.76669e-05, Final residual = 7.55668e-06, No Iterations 1
diagonal:  Solving for rho, Initial residual = 0, Final residual = 0, No Iterations 0
time step continuity errors (oil): sum local = 2.85049e-08, global = 2.83203e-08, cumulative = 3.04552e-06

Solving for solid region sphere
DICPCG:  Solving for h, Initial residual = 0.00930694, Final residual = 2.42452e-10, No Iterations 5
Min/max T:492.514 499.927
ExecutionTime = 103.59 s  ClockTime = 105 s

wallHeatFlux wallHeatFlux1 write:
    writing field wallHeatFlux
    min/max/integ(maxY) = 0, 0, 0
    min/max/integ(minX) = 0, 0, 0
    min/max/integ(maxX) = 0, 0, 0
    min/max/integ(minY) = 0, 0, 0
    min/max/integ(minZ) = 0, 0, 0
    min/max/integ(maxZ) = 0, 0, 0
    min/max/integ(oil_to_sphere) = 166520, 581168, 784.622
    functionObjects::heatTransferCoeff sphereHeatTrfCoeff writing field: heatTransferCoeff(T)
surfaceFieldValue avgSphereHeatTrfCoeff write:
    areaAverage(oil_to_sphere) of heatTransferCoeff(T) = -1438.65
    areaAverage(oil_to_sphere) of T = 493.716

Region: oil Courant Number mean: 9.50297e-05 max: 0.0199839
Region: sphere Diffusion Number mean: 0.125498 max: 0.811053
deltaT = 0.00166667
Time = 0.0816667


Solving for fluid region oil
diagonal:  Solving for rho, Initial residual = 0, Final residual = 0, No Iterations 0
DILUPBiCGStab:  Solving for Ux, Initial residual = 0.00142739, Final residual = 7.70156e-09, No Iterations 1
DILUPBiCGStab:  Solving for Uy, Initial residual = 0.000135651, Final residual = 3.27748e-09, No Iterations 1
DILUPBiCGStab:  Solving for Uz, Initial residual = 0.00142119, Final residual = 7.71839e-09, No Iterations 1
DILUPBiCGStab:  Solving for h, Initial residual = 3.07485e-05, Final residual = 9.21202e-11, No Iterations 1
Min/max T:300 495.705
GAMG:  Solving for p_rgh, Initial residual = 0.0028965, Final residual = 9.84377e-06, No Iterations 5
GAMG:  Solving for p_rgh, Initial residual = 4.6634e-05, Final residual = 8.89522e-06, No Iterations 1
diagonal:  Solving for rho, Initial residual = 0, Final residual = 0, No Iterations 0
time step continuity errors (oil): sum local = 2.944e-08, global = 2.92244e-08, cumulative = 3.07475e-06

Solving for solid region sphere
DICPCG:  Solving for h, Initial residual = 0.00931896, Final residual = 2.41279e-10, No Iterations 5
Min/max T:492.446 499.92
ExecutionTime = 105.23 s  ClockTime = 107 s


    From function virtual bool Foam::regIOobject::readIfModified()
    in file db/regIOobject/regIOobjectRead.C at line 281
        Re-reading object controlDict from file "/home/theodore_ong/GitHub_software/OpenFoam_heatTrf_YouTube/chtMultiregionFoam/hot_sphere_in_oil/exptCaseLES/system/controlDict"
Region: oil Courant Number mean: 9.49861e-05 max: 0.0198841
Region: sphere Diffusion Number mean: 0.1255 max: 0.81105
deltaT = 0.00208333
Time = 0.08375


Solving for fluid region oil
diagonal:  Solving for rho, Initial residual = 0, Final residual = 0, No Iterations 0
DILUPBiCGStab:  Solving for Ux, Initial residual = 0.00197531, Final residual = 1.45351e-08, No Iterations 1
DILUPBiCGStab:  Solving for Uy, Initial residual = 0.000194314, Final residual = 6.22218e-09, No Iterations 1
DILUPBiCGStab:  Solving for Uz, Initial residual = 0.00196257, Final residual = 1.45838e-08, No Iterations 1
DILUPBiCGStab:  Solving for h, Initial residual = 3.96205e-05, Final residual = 1.84091e-10, No Iterations 1
Min/max T:300 495.674
GAMG:  Solving for p_rgh, Initial residual = 0.00933044, Final residual = 8.05234e-06, No Iterations 5
GAMG:  Solving for p_rgh, Initial residual = 8.38896e-05, Final residual = 7.81673e-06, No Iterations 1
diagonal:  Solving for rho, Initial residual = 0, Final residual = 0, No Iterations 0
time step continuity errors (oil): sum local = 3.80541e-08, global = 3.77732e-08, cumulative = 3.11252e-06

Solving for solid region sphere
DICPCG:  Solving for h, Initial residual = 0.0118823, Final residual = 5.13043e-11, No Iterations 6
Min/max T:492.366 499.91
ExecutionTime = 106.64 s  ClockTime = 108 s

Region: oil Courant Number mean: 0.000118666 max: 0.0247023
Region: sphere Diffusion Number mean: 0.156877 max: 1.01381
deltaT = 0.00208333
Time = 0.0858333


Solving for fluid region oil
diagonal:  Solving for rho, Initial residual = 0, Final residual = 0, No Iterations 0
DILUPBiCGStab:  Solving for Ux, Initial residual = 0.0017318, Final residual = 1.40747e-08, No Iterations 1
DILUPBiCGStab:  Solving for Uy, Initial residual = 0.000184669, Final residual = 6.1803e-09, No Iterations 1
DILUPBiCGStab:  Solving for Uz, Initial residual = 0.00174299, Final residual = 1.41561e-08, No Iterations 1
DILUPBiCGStab:  Solving for h, Initial residual = 4.12585e-05, Final residual = 1.92276e-10, No Iterations 1
Min/max T:300 495.636
GAMG:  Solving for p_rgh, Initial residual = 0.00340306, Final residual = 8.56924e-06, No Iterations 6
GAMG:  Solving for p_rgh, Initial residual = 6.79924e-05, Final residual = 4.721e-06, No Iterations 2
diagonal:  Solving for rho, Initial residual = 0, Final residual = 0, No Iterations 0
time step continuity errors (oil): sum local = 3.98679e-08, global = 3.96963e-08, cumulative = 3.15222e-06

Solving for solid region sphere
DICPCG:  Solving for h, Initial residual = 0.0123015, Final residual = 5.22716e-11, No Iterations 6
Min/max T:492.259 499.899
ExecutionTime = 108.01 s  ClockTime = 109 s

[...]
    min/max/integ(maxZ) = 0, 0, 0
    min/max/integ(oil_to_sphere) = 284535, 893250, 2136.94
    functionObjects::heatTransferCoeff sphereHeatTrfCoeff writing field: heatTransferCoeff(T)
surfaceFieldValue avgSphereHeatTrfCoeff write:
    areaAverage(oil_to_sphere) of heatTransferCoeff(T) = -4160.72
    areaAverage(oil_to_sphere) of T = 482.577

Region: oil Courant Number mean: 0.000278933 max: 0.160996
Region: sphere Diffusion Number mean: 0.377728 max: 2.44466
deltaT = 0.005
Time = 0.285


Solving for fluid region oil
diagonal:  Solving for rho, Initial residual = 0, Final residual = 0, No Iterations 0
DILUPBiCGStab:  Solving for Ux, Initial residual = 0.00341704, Final residual = 3.21679e-07, No Iterations 1
DILUPBiCGStab:  Solving for Uy, Initial residual = 0.00105356, Final residual = 2.30409e-07, No Iterations 1
DILUPBiCGStab:  Solving for Uz, Initial residual = 0.00341494, Final residual = 3.18322e-07, No Iterations 1
DILUPBiCGStab:  Solving for h, Initial residual = 7.36475e-05, Final residual = 1.40567e-08, No Iterations 1
Min/max T:300 488.771
GAMG:  Solving for p_rgh, Initial residual = 0.00902514, Final residual = 9.15385e-06, No Iterations 6
GAMG:  Solving for p_rgh, Initial residual = 5.60753e-05, Final residual = 5.06483e-06, No Iterations 2
diagonal:  Solving for rho, Initial residual = 0, Final residual = 0, No Iterations 0
time step continuity errors (oil): sum local = 2.10017e-07, global = 2.08744e-07, cumulative = 1.1278e-05

Solving for solid region sphere
DICPCG:  Solving for h, Initial residual = 0.0296555, Final residual = 3.84865e-10, No Iterations 8
Min/max T:480.092 495.981
ExecutionTime = 225.23 s  ClockTime = 230 s

Region: oil Courant Number mean: 0.000278928 max: 0.162872
Region: sphere Diffusion Number mean: 0.37776 max: 2.44482
deltaT = 0.005
Time = 0.29


Solving for fluid region oil
diagonal:  Solving for rho, Initial residual = 0, Final residual = 0, No Iterations 0
DILUPBiCGStab:  Solving for Ux, Initial residual = 0.00341785, Final residual = 3.23241e-07, No Iterations 1
DILUPBiCGStab:  Solving for Uy, Initial residual = 0.00108794, Final residual = 2.37958e-07, No Iterations 1
DILUPBiCGStab:  Solving for Uz, Initial residual = 0.0034156, Final residual = 3.19806e-07, No Iterations 1
DILUPBiCGStab:  Solving for h, Initial residual = 7.16692e-05, Final residual = 1.42375e-08, No Iterations 1
Min/max T:300 488.531
GAMG:  Solving for p_rgh, Initial residual = 0.00911595, Final residual = 9.0786e-06, No Iterations 6
GAMG:  Solving for p_rgh, Initial residual = 5.5251e-05, Final residual = 5.01511e-06, No Iterations 2
diagonal:  Solving for rho, Initial residual = 0, Final residual = 0, No Iterations 0
time step continuity errors (oil): sum local = 2.07926e-07, global = 2.06673e-07, cumulative = 1.14847e-05

Solving for solid region sphere
DICPCG:  Solving for h, Initial residual = 0.0293471, Final residual = 3.8023e-10, No Iterations 8
Min/max T:479.947 495.819
ExecutionTime = 229.21 s  ClockTime = 234 s

wallHeatFlux wallHeatFlux1 write:
    writing field wallHeatFlux
    min/max/integ(maxY) = 0, 0, 0
    min/max/integ(minX) = 0, 0, 0
    min/max/integ(maxX) = 0, 0, 0
    min/max/integ(minY) = 0, 0, 0
    min/max/integ(minZ) = 0, 0, 0
    min/max/integ(maxZ) = 0, 0, 0
    min/max/integ(oil_to_sphere) = 286926, 870266, 2091.44
    functionObjects::heatTransferCoeff sphereHeatTrfCoeff writing field: heatTransferCoeff(T)
surfaceFieldValue avgSphereHeatTrfCoeff write:
    areaAverage(oil_to_sphere) of heatTransferCoeff(T) = -4080.06
    areaAverage(oil_to_sphere) of T = 482.204

Region: oil Courant Number mean: 0.000278937 max: 0.164654
Region: sphere Diffusion Number mean: 0.37779 max: 2.44497
deltaT = 0.005
Time = 0.295


Solving for fluid region oil
diagonal:  Solving for rho, Initial residual = 0, Final residual = 0, No Iterations 0
DILUPBiCGStab:  Solving for Ux, Initial residual = 0.00341792, Final residual = 3.24917e-07, No Iterations 1
DILUPBiCGStab:  Solving for Uy, Initial residual = 0.00112453, Final residual = 2.46052e-07, No Iterations 1
DILUPBiCGStab:  Solving for Uz, Initial residual = 0.00341553, Final residual = 3.21508e-07, No Iterations 1
DILUPBiCGStab:  Solving for h, Initial residual = 6.97683e-05, Final residual = 1.4412e-08, No Iterations 1
Min/max T:300 488.292
GAMG:  Solving for p_rgh, Initial residual = 0.00919588, Final residual = 9.00472e-06, No Iterations 6
GAMG:  Solving for p_rgh, Initial residual = 5.45168e-05, Final residual = 4.96682e-06, No Iterations 2
diagonal:  Solving for rho, Initial residual = 0, Final residual = 0, No Iterations 0
time step continuity errors (oil): sum local = 2.05823e-07, global = 2.0459e-07, cumulative = 1.16893e-05

Solving for solid region sphere
DICPCG:  Solving for h, Initial residual = 0.029055, Final residual = 3.75845e-10, No Iterations 8
Min/max T:479.806 495.655
ExecutionTime = 230.71 s  ClockTime = 236 s

Region: oil Courant Number mean: 0.000278963 max: 0.166344
Region: sphere Diffusion Number mean: 0.377821 max: 2.44512
deltaT = 0.005
Time = 0.3


Solving for fluid region oil
diagonal:  Solving for rho, Initial residual = 0, Final residual = 0, No Iterations 0
DILUPBiCGStab:  Solving for Ux, Initial residual = 0.00341723, Final residual = 3.26736e-07, No Iterations 1
DILUPBiCGStab:  Solving for Uy, Initial residual = 0.00116365, Final residual = 2.54778e-07, No Iterations 1
DILUPBiCGStab:  Solving for Uz, Initial residual = 0.00341463, Final residual = 3.23304e-07, No Iterations 1
DILUPBiCGStab:  Solving for h, Initial residual = 6.79413e-05, Final residual = 1.45774e-08, No Iterations 1
Min/max T:300 488.054
GAMG:  Solving for p_rgh, Initial residual = 0.00926719, Final residual = 8.93058e-06, No Iterations 6
GAMG:  Solving for p_rgh, Initial residual = 5.38678e-05, Final residual = 4.92099e-06, No Iterations 2
diagonal:  Solving for rho, Initial residual = 0, Final residual = 0, No Iterations 0
time step continuity errors (oil): sum local = 2.03712e-07, global = 2.02498e-07, cumulative = 1.18918e-05

Solving for solid region sphere
DICPCG:  Solving for h, Initial residual = 0.0287782, Final residual = 3.71699e-10, No Iterations 8
Min/max T:479.67 495.488
ExecutionTime = 234.74 s  ClockTime = 240 s

wallHeatFlux wallHeatFlux1 write:
    writing field wallHeatFlux
    min/max/integ(maxY) = 0, 0, 0
    min/max/integ(minX) = 0, 0, 0
    min/max/integ(maxX) = 0, 0, 0
    min/max/integ(minY) = 0, 0, 0
    min/max/integ(minZ) = 0, 0, 0
    min/max/integ(maxZ) = 0, 0, 0
    min/max/integ(oil_to_sphere) = 288652, 847833, 2045.68
    functionObjects::heatTransferCoeff sphereHeatTrfCoeff writing field: heatTransferCoeff(T)
surfaceFieldValue avgSphereHeatTrfCoeff write:
    areaAverage(oil_to_sphere) of heatTransferCoeff(T) = -3998.2
    areaAverage(oil_to_sphere) of T = 481.849

Region: oil Courant Number mean: 0.000279009 max: 0.167949
Region: sphere Diffusion Number mean: 0.377851 max: 2.44527
deltaT = 0.005
Time = 0.305


Solving for fluid region oil
diagonal:  Solving for rho, Initial residual = 0, Final residual = 0, No Iterations 0
DILUPBiCGStab:  Solving for Ux, Initial residual = 0.00341559, Final residual = 3.28639e-07, No Iterations 1
DILUPBiCGStab:  Solving for Uy, Initial residual = 0.0012056, Final residual = 2.64253e-07, No Iterations 1
DILUPBiCGStab:  Solving for Uz, Initial residual = 0.00341299, Final residual = 3.25221e-07, No Iterations 1
DILUPBiCGStab:  Solving for h, Initial residual = 6.61848e-05, Final residual = 1.47293e-08, No Iterations 1
Min/max T:300 487.817
GAMG:  Solving for p_rgh, Initial residual = 0.0093256, Final residual = 8.859e-06, No Iterations 6
GAMG:  Solving for p_rgh, Initial residual = 5.3198e-05, Final residual = 4.87486e-06, No Iterations 2
diagonal:  Solving for rho, Initial residual = 0, Final residual = 0, No Iterations 0
time step continuity errors (oil): sum local = 2.01596e-07, global = 2.00403e-07, cumulative = 1.20922e-05

Solving for solid region sphere
DICPCG:  Solving for h, Initial residual = 0.0285158, Final residual = 3.67787e-10, No Iterations 8
Min/max T:479.537 495.318
ExecutionTime = 236.31 s  ClockTime = 242 s

Region: oil Courant Number mean: 0.000279074 max: 0.169474
Region: sphere Diffusion Number mean: 0.37788 max: 2.44541
deltaT = 0.005
Time = 0.31


Solving for fluid region oil
diagonal:  Solving for rho, Initial residual = 0, Final residual = 0, No Iterations 0
DILUPBiCGStab:  Solving for Ux, Initial residual = 0.00341367, Final residual = 3.30631e-07, No Iterations 1
DILUPBiCGStab:  Solving for Uy, Initial residual = 0.00125073, Final residual = 2.74541e-07, No Iterations 1
DILUPBiCGStab:  Solving for Uz, Initial residual = 0.00341103, Final residual = 3.27238e-07, No Iterations 1
DILUPBiCGStab:  Solving for h, Initial residual = 6.44955e-05, Final residual = 1.48687e-08, No Iterations 1
Min/max T:300 487.581
GAMG:  Solving for p_rgh, Initial residual = 0.00937171, Final residual = 8.79033e-06, No Iterations 6
GAMG:  Solving for p_rgh, Initial residual = 5.26114e-05, Final residual = 4.83063e-06, No Iterations 2
diagonal:  Solving for rho, Initial residual = 0, Final residual = 0, No Iterations 0
time step continuity errors (oil): sum local = 1.99481e-07, global = 1.98307e-07, cumulative = 1.22905e-05

Solving for solid region sphere
DICPCG:  Solving for h, Initial residual = 0.0282672, Final residual = 3.64091e-10, No Iterations 8
Min/max T:479.408 495.146
ExecutionTime = 240.43 s  ClockTime = 246 s

wallHeatFlux wallHeatFlux1 write:
    writing field wallHeatFlux
    min/max/integ(maxY) = 0, 0, 0
    min/max/integ(minX) = 0, 0, 0
    min/max/integ(maxX) = 0, 0, 0
    min/max/integ(minY) = 0, 0, 0
    min/max/integ(minZ) = 0, 0, 0
    min/max/integ(maxZ) = 0, 0, 0
    min/max/integ(oil_to_sphere) = 289925, 826012, 2000
    functionObjects::heatTransferCoeff sphereHeatTrfCoeff writing field: heatTransferCoeff(T)
surfaceFieldValue avgSphereHeatTrfCoeff write:
    areaAverage(oil_to_sphere) of heatTransferCoeff(T) = -3915.85
    areaAverage(oil_to_sphere) of T = 481.512

Region: oil Courant Number mean: 0.000279162 max: 0.170926
Region: sphere Diffusion Number mean: 0.37791 max: 2.44555
deltaT = 0.005
Time = 0.315


Solving for fluid region oil
diagonal:  Solving for rho, Initial residual = 0, Final residual = 0, No Iterations 0
DILUPBiCGStab:  Solving for Ux, Initial residual = 0.00341104, Final residual = 3.32611e-07, No Iterations 1
DILUPBiCGStab:  Solving for Uy, Initial residual = 0.00129933, Final residual = 2.85792e-07, No Iterations 1
DILUPBiCGStab:  Solving for Uz, Initial residual = 0.00340823, Final residual = 3.29231e-07, No Iterations 1
DILUPBiCGStab:  Solving for h, Initial residual = 6.28704e-05, Final residual = 1.49963e-08, No Iterations 1
Min/max T:300 487.348
GAMG:  Solving for p_rgh, Initial residual = 0.00940293, Final residual = 8.71978e-06, No Iterations 6
GAMG:  Solving for p_rgh, Initial residual = 5.20869e-05, Final residual = 4.78529e-06, No Iterations 2
diagonal:  Solving for rho, Initial residual = 0, Final residual = 0, No Iterations 0
time step continuity errors (oil): sum local = 1.97367e-07, global = 1.96212e-07, cumulative = 1.24867e-05

Solving for solid region sphere
DICPCG:  Solving for h, Initial residual = 0.0280315, Final residual = 3.60591e-10, No Iterations 8
Min/max T:479.282 494.971
ExecutionTime = 242.07 s  ClockTime = 247 s

Region: oil Courant Number mean: 0.000279272 max: 0.172307
Region: sphere Diffusion Number mean: 0.377939 max: 2.44569
deltaT = 0.005
Time = 0.32


Solving for fluid region oil
diagonal:  Solving for rho, Initial residual = 0, Final residual = 0, No Iterations 0
DILUPBiCGStab:  Solving for Ux, Initial residual = 0.00340775, Final residual = 3.34492e-07, No Iterations 1
DILUPBiCGStab:  Solving for Uy, Initial residual = 0.00135182, Final residual = 2.9811e-07, No Iterations 1
DILUPBiCGStab:  Solving for Uz, Initial residual = 0.00340487, Final residual = 3.31168e-07, No Iterations 1
DILUPBiCGStab:  Solving for h, Initial residual = 6.13063e-05, Final residual = 1.51122e-08, No Iterations 1
Min/max T:300 487.115
GAMG:  Solving for p_rgh, Initial residual = 0.00941999, Final residual = 8.65329e-06, No Iterations 6
GAMG:  Solving for p_rgh, Initial residual = 5.15332e-05, Final residual = 4.74458e-06, No Iterations 2
diagonal:  Solving for rho, Initial residual = 0, Final residual = 0, No Iterations 0
time step continuity errors (oil): sum local = 1.95259e-07, global = 1.94123e-07, cumulative = 1.26809e-05

Solving for solid region sphere
DICPCG:  Solving for h, Initial residual = 0.0278078, Final residual = 3.57288e-10, No Iterations 8
Min/max T:479.149 494.794
ExecutionTime = 245.79 s  ClockTime = 252 s

wallHeatFlux wallHeatFlux1 write:
    writing field wallHeatFlux
    min/max/integ(maxY) = 0, 0, 0
    min/max/integ(minX) = 0, 0, 0
    min/max/integ(maxX) = 0, 0, 0
    min/max/integ(minY) = 0, 0, 0
    min/max/integ(minZ) = 0, 0, 0
    min/max/integ(maxZ) = 0, 0, 0
    min/max/integ(oil_to_sphere) = 290721, 804838, 1954.65
    functionObjects::heatTransferCoeff sphereHeatTrfCoeff writing field: heatTransferCoeff(T)
surfaceFieldValue avgSphereHeatTrfCoeff write:
    areaAverage(oil_to_sphere) of heatTransferCoeff(T) = -3833.55
    areaAverage(oil_to_sphere) of T = 481.19

Region: oil Courant Number mean: 0.0002794 max: 0.173622
Region: sphere Diffusion Number mean: 0.377967 max: 2.44582
deltaT = 0.005
Time = 0.325


Solving for fluid region oil
diagonal:  Solving for rho, Initial residual = 0, Final residual = 0, No Iterations 0
DILUPBiCGStab:  Solving for Ux, Initial residual = 0.00340376, Final residual = 3.36251e-07, No Iterations 1
DILUPBiCGStab:  Solving for Uy, Initial residual = 0.00140865, Final residual = 3.11592e-07, No Iterations 1
DILUPBiCGStab:  Solving for Uz, Initial residual = 0.00340075, Final residual = 3.32951e-07, No Iterations 1
DILUPBiCGStab:  Solving for h, Initial residual = 5.98004e-05, Final residual = 1.52202e-08, No Iterations 1
Min/max T:300 486.885
GAMG:  Solving for p_rgh, Initial residual = 0.00942531, Final residual = 8.57865e-06, No Iterations 6
GAMG:  Solving for p_rgh, Initial residual = 5.10053e-05, Final residual = 4.69891e-06, No Iterations 2
diagonal:  Solving for rho, Initial residual = 0, Final residual = 0, No Iterations 0
time step continuity errors (oil): sum local = 1.93157e-07, global = 1.92041e-07, cumulative = 1.28729e-05

Solving for solid region sphere
DICPCG:  Solving for h, Initial residual = 0.0275955, Final residual = 3.54165e-10, No Iterations 8
Min/max T:479.019 494.615
ExecutionTime = 247.29 s  ClockTime = 253 s

Region: oil Courant Number mean: 0.000279548 max: 0.178999
Region: sphere Diffusion Number mean: 0.377995 max: 2.44595
deltaT = 0.005
Time = 0.33


Solving for fluid region oil
diagonal:  Solving for rho, Initial residual = 0, Final residual = 0, No Iterations 0
DILUPBiCGStab:  Solving for Ux, Initial residual = 0.00339904, Final residual = 3.37897e-07, No Iterations 1
DILUPBiCGStab:  Solving for Uy, Initial residual = 0.00147054, Final residual = 3.26414e-07, No Iterations 1
DILUPBiCGStab:  Solving for Uz, Initial residual = 0.00339619, Final residual = 3.34643e-07, No Iterations 1
DILUPBiCGStab:  Solving for h, Initial residual = 5.83498e-05, Final residual = 1.53201e-08, No Iterations 1
Min/max T:300 486.656
GAMG:  Solving for p_rgh, Initial residual = 0.00941854, Final residual = 8.5116e-06, No Iterations 6
GAMG:  Solving for p_rgh, Initial residual = 5.04839e-05, Final residual = 4.65786e-06, No Iterations 2
diagonal:  Solving for rho, Initial residual = 0, Final residual = 0, No Iterations 0
time step continuity errors (oil): sum local = 1.91066e-07, global = 1.89968e-07, cumulative = 1.30629e-05

Solving for solid region sphere
DICPCG:  Solving for h, Initial residual = 0.0273941, Final residual = 3.51207e-10, No Iterations 8
Min/max T:478.893 494.433
ExecutionTime = 251.33 s  ClockTime = 257 s

wallHeatFlux wallHeatFlux1 write:
    writing field wallHeatFlux
    min/max/integ(maxY) = 0, 0, 0
    min/max/integ(minX) = 0, 0, 0
    min/max/integ(maxX) = 0, 0, 0
    min/max/integ(minY) = 0, 0, 0
    min/max/integ(minZ) = 0, 0, 0
    min/max/integ(maxZ) = 0, 0, 0
    min/max/integ(oil_to_sphere) = 291097, 784401, 1909.83
    functionObjects::heatTransferCoeff sphereHeatTrfCoeff writing field: heatTransferCoeff(T)
surfaceFieldValue avgSphereHeatTrfCoeff write:
    areaAverage(oil_to_sphere) of heatTransferCoeff(T) = -3751.71
    areaAverage(oil_to_sphere) of T = 480.883

Region: oil Courant Number mean: 0.000279715 max: 0.184541
Region: sphere Diffusion Number mean: 0.378023 max: 2.44607
deltaT = 0.005
Time = 0.335


Solving for fluid region oil
diagonal:  Solving for rho, Initial residual = 0, Final residual = 0, No Iterations 0
DILUPBiCGStab:  Solving for Ux, Initial residual = 0.00339388, Final residual = 3.39402e-07, No Iterations 1
DILUPBiCGStab:  Solving for Uy, Initial residual = 0.00153795, Final residual = 3.42694e-07, No Iterations 1
DILUPBiCGStab:  Solving for Uz, Initial residual = 0.00339083, Final residual = 3.36203e-07, No Iterations 1
DILUPBiCGStab:  Solving for h, Initial residual = 5.69519e-05, Final residual = 1.5409e-08, No Iterations 1
Min/max T:300 486.43
GAMG:  Solving for p_rgh, Initial residual = 0.00939904, Final residual = 8.43897e-06, No Iterations 6
GAMG:  Solving for p_rgh, Initial residual = 5.00465e-05, Final residual = 4.61374e-06, No Iterations 2
diagonal:  Solving for rho, Initial residual = 0, Final residual = 0, No Iterations 0
time step continuity errors (oil): sum local = 1.88985e-07, global = 1.87906e-07, cumulative = 1.32508e-05

Solving for solid region sphere
DICPCG:  Solving for h, Initial residual = 0.0272031, Final residual = 3.48415e-10, No Iterations 8
Min/max T:478.771 494.25
ExecutionTime = 252.63 s  ClockTime = 259 s

Region: oil Courant Number mean: 0.000279898 max: 0.19007
Region: sphere Diffusion Number mean: 0.378051 max: 2.44619
deltaT = 0.005
Time = 0.34


Solving for fluid region oil
diagonal:  Solving for rho, Initial residual = 0, Final residual = 0, No Iterations 0
DILUPBiCGStab:  Solving for Ux, Initial residual = 0.00338817, Final residual = 3.4078e-07, No Iterations 1
DILUPBiCGStab:  Solving for Uy, Initial residual = 0.00161167, Final residual = 3.60612e-07, No Iterations 1
DILUPBiCGStab:  Solving for Uz, Initial residual = 0.0033849, Final residual = 3.37631e-07, No Iterations 1
DILUPBiCGStab:  Solving for h, Initial residual = 5.56043e-05, Final residual = 1.54887e-08, No Iterations 1
Min/max T:300 486.205
GAMG:  Solving for p_rgh, Initial residual = 0.00936885, Final residual = 8.3667e-06, No Iterations 6
GAMG:  Solving for p_rgh, Initial residual = 4.95357e-05, Final residual = 4.57263e-06, No Iterations 2
diagonal:  Solving for rho, Initial residual = 0, Final residual = 0, No Iterations 0
time step continuity errors (oil): sum local = 1.86918e-07, global = 1.85856e-07, cumulative = 1.34366e-05

Solving for solid region sphere
DICPCG:  Solving for h, Initial residual = 0.0270217, Final residual = 3.45787e-10, No Iterations 8
Min/max T:478.652 494.065
ExecutionTime = 256.57 s  ClockTime = 263 s

wallHeatFlux wallHeatFlux1 write:
    writing field wallHeatFlux
    min/max/integ(maxY) = 0, 0, 0
    min/max/integ(minX) = 0, 0, 0
    min/max/integ(maxX) = 0, 0, 0
    min/max/integ(minY) = 0, 0, 0
    min/max/integ(minZ) = 0, 0, 0
    min/max/integ(maxZ) = 0, 0, 0
    min/max/integ(oil_to_sphere) = 291087, 766008, 1865.65
    functionObjects::heatTransferCoeff sphereHeatTrfCoeff writing field: heatTransferCoeff(T)
surfaceFieldValue avgSphereHeatTrfCoeff write:
    areaAverage(oil_to_sphere) of heatTransferCoeff(T) = -3670.63
    areaAverage(oil_to_sphere) of T = 480.59

Region: oil Courant Number mean: 0.000280097 max: 0.195572
Region: sphere Diffusion Number mean: 0.378078 max: 2.44631
deltaT = 0.005
Time = 0.345


Solving for fluid region oil
diagonal:  Solving for rho, Initial residual = 0, Final residual = 0, No Iterations 0
